* BB119
* diode/varactor/bb119.mod

.MODEL BB119 D IS=1.122e-17 RS=0.0011 CJO=4.163e-11 VJ=0.75 TT=5n M=0.3333 BV=100 N=1 EG=1.11 XTI=3 FC=0.5 IBV=0.0001 TNOM=27 mfg=Philips type=varactor
