* BB112
* diode/varactor/bb112.mod

.MODEL BB112 D ( IS=1e-14 RS=0.0011 CJO=2.324n VJ=0.75 TT=5n M=0.9 BV=100 XTI=3 FC=0.5 IBV=0.0001 mfg=Philips type=varactor
