* BB130
* diode/varactor/bb130.mod

.MODEL BB130 D IS=1e-14 RS=0.0011 CJO=5.563e-11 VJ=0.75 TT=5n M=0.3333 BV=100 N=1 EG=1.11 XTI=3 FC=0.5 IBV=0.0001 TNOM=27

* mfg: Philips
* type: varactor
