* BB212
* diode/varactor/bb212.mod

.MODEL BB212 D ( IS=1e-14 RS=0.0011 CJO=7.202e-10 VJ=.10 TT=5n M=0.9 BV=100 XTI=3 FC=0.5 IBV=0.0001

* mfg: Philips
* type: varactor
