* BB215
* diode/varactor/bb215.mod

.MODEL BB215 D IS=1e-14 RS=0.0011 CJO=3.249e-11 VJ=0.75 TT=5n M=0.7646 BV=100 N=1 EG=1.11 XTI=3 FC=0.5 IBV=0.0001 TNOM=27

* mfg: Philips
* type: varactor
