* BB219
* diode/varactor/bb219.mod

.MODEL BB219 D IS=1e-14 RS=0.0011 CJO=6.351e-11 VJ=0.75 TT=5n M=0.8465 BV=100 N=1 EG=1.11 XTI=3 FC=0.5 IBV=0.0001 TNOM=27 mfg=Philips type=varactor
