* BB405B
* diode/varactor/bb405b.mod

.MODEL BB405B D IS=1e-14 RS=0.0011 CJO=2.673e-11 VJ=1.922 TT=5n M=0.9446 BV=100 N=1 EG=1.11 XTI=3 FC=0.5 IBV=0.0001 TNOM=27 mfg=Philips type=varactor
