* BB619
* diode/varactor/bb619.mod

.MODEL BB619 D IS=1e-14 RS=0.0011 CJO=8.244e-11 VJ=0.75 TT=5n M=0.9376 BV=30.36 N=1 EG=1.11 XTI=3 FC=0.5 IBV=10 TNOM=27 mfg=Philips type=varactor
