* BB639-SIE
* diode/varactor/bb639-sie.mod

.MODEL BB639/SIE D(IS=4E-15 N=1.035 RS=.12 XTI=3 EG=1.11 CJO=55.88E-12 M=1.286 VJ=2.922 FC=.5 BV=32 IBV=100E-9 TT=160E-9 type=varactor)
