* BB809
* diode/varactor/bb809.mod

.MODEL BB809 D IS=1e-14 RS=0.0011 CJO=8.387e-11 VJ=0.75 TT=5n M=0.8022 BV=30.36 N=1 EG=1.11 XTI=3 FC=0.5 IBV=10 TNOM=27

* mfg: Philips
* type: varactor
