* BB804-SIE
* diode/varactor/bb804-sie.mod

.MODEL BB804/SIE D(IS=48F N=1.13 RS=.18 XTI=3 EG=1.11 CJO=80.6P M=.47 VJ=.8 FC=.5 BV=20 IBV=.1U TT=137N type=varactor)
