* BB814-SIE
* diode/varactor/bb814-sie.mod

.MODEL BB814/SIE D(IS=7f N=1.012 RS=.18 XTI=3 EG=1.11 CJO=83.9p M=.775 VJ=1.6 FC=.5 BV=20 IBV=100n TT=137n type=varactor)
