* BB909B
* diode/varactor/bb909b.mod

.MODEL BB909B D IS=1e-14 RS=0.0011 CJO=4.028e-11 VJ=10 TT=5n M=0.9 BV=100 N=1 EG=1.11 XTI=3 FC=0.5 IBV=0.0001 TNOM=27

* mfg: Philips
* type: varactor
