* BB914-SIE
* diode/varactor/bb914-sie.mod

.MODEL BB914/SIE D(IS=10.00E-15 N=1.020 RS=.28 IKF=0 XTI=3 EG=1.11 CJO=75.54E-12 M=1.161 VJ=3.445 FC=.5 ISR=100E-12 NR=2 BV=20 IBV=100E-9 TT=137.0E-9 type=varactor)
