* 2SK1058
* mosfet/nmos/2sk1058.mod

.MODEL 2SK1058 NMOS (VTO=403.969M KP=20U L=2U W=29.7482M GAMMA=0 PHI=600M LAMBDA=184.988F RD=60.8251M CBD=2.56138N IS=10F CGSO=1.13517N CGDO=1.13517N TPG=1 UO=600 RG=50 RDS=1MEG )
