* 2SK1489
* mosfet/nmos/2sk1489.mod

.MODEL 2SK1489 NMOS(LEVEL=3 L=2u W=4.8 KP=1.0362u RS=10m RD=.7366 VTO=2.2500 RDS=5.3333E6 TOX=2u CGSO=1.9n CGDO=31.4p CBD=3.74n MJ=1.1448 PB=2.0044 RG=10m IS=5.1802m N=5 RB=1n GAMMA=0 KAPPA=0)
