* DI_BSS138
* mosfet/nmos/di_bss138.mod

.MODEL DI_BSS138 NMOS LEVEL=1 VTO=1.2 KP=7.50m GAMMA=1.49 PHI=.75 LAMBDA=1.25m RD=0.196 RS=0.196 IS=100f PB=0.800 MJ=0.460 CBD=18.4p CBS=22.0p CGSO=28.8n CGDO=24.0n CGBO=247n L=100U W=100U
