* DN2530
* mosfet/nmos/dn2530.mod

.MODEL DN2530 NMOS (LEVEL=3 RS=0.25 NSUB=5.0E14 DELTA=0.1 KAPPA=0.20 TPG=1 CGDO=3.1716E-10 RD=7.0 VTO=-2.20 VMAX=1.0E7 ETA=0.0223089 NFS=6.6E10 TOX=750E-10 LD=1.698E-9 UO=862.425 XJ=6.4666E-7 THETA=1.0E-5 CGSO=2.50E-9 L=3.0E-6 W=59E-3 KP=12E-6)
