* IXFH58N20
* mosfet/nmos/ixfh58n20.mod

.MODEL IXFH58N20 NMOS LEVEL=3 L=2u W=58 KP=1.043u RS=10m RD=24.491m VTO=3.6288 RDS=8MEG TOX=2u CGSO=154.48p CGDO=7.6p CBD=3.6792n MJ=1.0215 PB=3 RG=10m IS=11.429u N=2.3157 RB=1u GAMMA=0 KAPPA=0
