* KP905A
* mosfet/nmos/kp905a.mod

.MODEL KP905A NMOS (VTO=3.40928 KP=20U L=2U W=144.821M PHI=600M LAMBDA=5.34071M RD=3.0984 RS=103.139M CBD=304.961P CGSO=1.33845N CGDO=204.254P TOX=0 NSUB=0 TPG=1 UO=600 RG=88.5886 RDS=4MEG mfg=USSR)
