* KP913
* mosfet/nmos/kp913.mod

.MODEL KP913 NMOS (VTO=5.98947 L=2U W=144.126M LAMBDA=50M RD=406.351M RS=377.083M CGSO=617.586P CGDO=617.586P RDS=1MEG)

* mfg: USSR
