* KP912
* mosfet/nmos/kp912.mod

.MODEL KP912 NMOS (VTO=3.7441 L=2U W=222.016M LAMBDA=50M RD=775.168M RS=269.513M CGSO=617.586P CGDO=617.586P RDS=1MEG mfg=USSR)
