* KP920
* mosfet/nmos/kp920.mod

.MODEL KP920 NMOS (VTO=6.04671 L=2U W=75.7492M LAMBDA=50M RD=604.012M RS=232.204M CGSO=617.586P CGDO=617.586P RG=114.991M RDS=1MEG mfg=USSR)
