* KP922
* mosfet/nmos/kp922.mod

.MODEL KP922 NMOS (VTO=3.69098 L=2U W=374.478M LAMBDA=44.0723F RD=876.844M RS=905.727M CGSO=617.586P CGDO=617.586P RG=25.8323 RDS=50K mfg=USSR)
