* VN10KM
* mosfet/nmos/vn10km.mod

.MODEL VN10KM NMOS (LEVEL=1 VTO=1.4 KP=1.55E-01 PHI=0.75 LAMBDA=2.9E-04 RD=7.60E-01 RS=7.60E-01 IS=6.46E-14 CBD=3.28E-11 CBS=3.94E-11 PB=0.80 MJ=.46 CGSO=2.40E-08 CGDO=2.00E-08 CGBO=3.36E-07 Vds=60 Ron=4 )

* mfg: Siliconix
