* BF511
* bjt/njf/bf511.mod

.model BF511 NJF(Beta=900u Rs=1 Rd=1 Betatce=-.5 Lambda=10m Vto=-2.288 Vtotc=-2.5m Cgd=2.5p M=.3333 Pb=1 Fc=.5 Cgs=2.5p Isr=1p Nr=2 Is=100f N=1 Xti=3 Alpha=10u Vk=100 Kf=1E-18 Af=1)
