
* Copyright (c) 2000-2012 Linear Technology Corporation.   All rights reserved.
*
* This file will be used as a template to test my script.

.model 2SD1864 NPN (IS=1.2000p BF=91.918 VAF=5.7704 IKF=4.5333 ISE=1.2000p NE=1.4873 BR=344.81 VAR=100 IKR=81.827m ISC=1.4049n NC=1.6296 RE=90.000m RB=.21142 RC=33.065m CJE=562.04p MJE=.559 CJC=145.17p MJC=.43988 TF=1.6562n XTF=57.091 VTF=180.89 ITF=24.514 TR=66.557n XTB=1.5000 Vceo=50 Icrating=3 mfg=ROHM)
.model 2N2222A NPN (Is=14.34f Xti=3 Eg=1.11 Vaf=74.03 Bf=255.9 Ne=1.307 Ise=14.34f Ikf=.2847 Xtb=1.5 Br=6.092 Nc=2 Isc=0 Ikr=0 Rc=1 Cjc=7.306p Mjc=.3416 Vjc=.75 Fc=.5 Cje=22.01p Mje=.377 Vje=.75 Tr=46.91n Tf=411.1p Itf=.6Vtf=1.7 Xtf=3 Rb=10 Vceo=40 Icrating=800m mfg=Fairchild)
.model BC327-25 PNP(IS=1.08E-13 NF=0.99 ISE=2.713E-14 NE=1.4 BF=385.7 IKF=0.3603 VAF=31.29 NR=0.9849 ISC=5.062E-13 NC=1.295 BR=20.57 IKR=0.054 VAR=11.62 RB=1 IRB=1.00E-06 RBM=0.5 RE=0.1415 RC=0.2623 XTB=0 EG=1.11 XTI=3 CJE=5.114E-11 VJE=0.8911 MJE=0.4417 TF=7.359E-10 XTF=1.859 VTF=3.813 ITF=0.4393 PTF=0 CJC=2.656E-11 VJC=0.62 MJC=0.4836 XCJC=0.459 TR=5.00E-08 CJS=0 VJS=0.75 MJS=0.333 FC=0.99 Vceo=45 Icrating=500m mfg=Philips)
.model BC327-40 PNP(IS=2.077E-13 NF=1.005 ISE=1.411E-14 NE=1.3 BF=449.8 IKF=0.36 VAF=29 NR=1.002 ISC=2.963E-13 NC=1.25 BR=20.92 IKR=0.104 VAR=10 RB=40 IRB=1.00E-05 RBM=5.3 RE=0.14 RC=0.32 XTB=0 EG=1.11 XTI=3 CJE=5E-11 VJE=0.9296 MJE=0.456 TF=7E-10 XTF=3.25 VTF=2.5 ITF=0.79 PTF=80 CJC=2.675E-11 VJC=0.8956 MJC=0.4638 XCJC=0.459 TR=3.50E-08 CJS=0 VJS=0.75 MJS=0.333 FC=0.935 Vceo=45 Icrating=500m mfg=Philips)
.MODEL FMMT558 PNP IS=7.84E-14 NF=1 BF=210 IKF=1.8 VAF=349 ISE=3.35E-14 NE=1.69 NR=1 BR=3.4 IKR=0.15 VAR=82 ISC=9.42p NC=1.05 RB=0.5 RE=0.1 RC=0.1 QUASIMOD=1 RCO=54 GAMMA=13e-6 CJC=20.5p MJC=0.38 VJC=0.44 CJE=115p MJE=0.43 VJE=0.85 TF=0.9n TR=18E-5 TRC1=.015 TRB1=.015 TRE1=.015 XTB=1.4 Vceo=400 Icrating=0.15 mfg=Zetex
.MODEL ZXTN07012EFF NPN IS=1.7p NF=1 BF=1100 IKF=5 VAF=25 ISE=3E-13 NE=1.43 NR=1 BR=470 IKR=1 VAR=6.5 ISC=1.2p NC=1.5 RB=0.1 RE=0.03 RC=0.0097 RCO=0.2 GAMMA=10E-10 CJC=106p MJC=0.33 VJC=0.55 CJE=285p MJE=0.41 VJE=0.80 TF=0.4n TR=1.3n XTB=1.4 TRC1=0.003 TRB1=0.003 TRE1=0.003 QUASIMOD=1 Vceo=12 Icrating=4.5 mfg=Zetex
.MODEL ZXTN25012EFL NPN IS=9E-13 NF=1 BF=990 IKF=3.8 VAF=25 ISE=8E-14 NE=1.35 NR=1 BR=410 IKR=1.25 VAR=8 ISC=8e-14 NC=1.35 RB=0.1 RE=0.0117 RC=0.0081 CJC=61p MJC=0.31 VJC=0.52 CJE=168p MJE=0.38 VJE=0.70 TF=0.5n TR=1.7n XTB=1.4 Vceo=12 Icrating=2 mfg=Zetex
.MODEL ZXTN25012EFH NPN IS=9E-13 BF=990 NF=1 VAF=25 IKF=3.8 ISE=8E-14 NE=1.35 BR=410 NR=1 VAR=8 IKR=1.25 ISC=8e-14 NC=1.35 RE=0.0117 RB=0.1 RC=0.0081 CJE=168p VJE=0.7 MJE=0.38 CJC=61p VJC=0.52 MJC=0.31 TF=0.5n TR=1.7n XTB=1.4 Vceo=12 Icrating=6 mfg=Zetex
.MODEL FCX690B NPN IS=1.5p NF=1 BF=1000 IKF=3 VAF=60 ISE=4E-13 NE=1.37 NR=1 BR=123 IKR=1 VAR=14.5 ISC=4E-13 NC=1.34 RB=0.1 RE=0.045 RC=0.027 CJE=250p VJE=0.68 MJE=0.36 CJC=59p VJC=0.49 MJC=0.36 TF=0.77n TR=18n RCO=0.93 GAMMA=5n QUASIMOD=1 XTB=1.4 TRE1=0.002 TRB1=0.002 TRC1=0.002 Vceo=45 Icrating=2 mfg=Zetex
.model 2SC5200 ako:2SC3281 NPN( Vceo=200V ICrating=15A mfg=Toshiba)
.model PZT3906 ako: 2N3906 PNP Vceo=40 Icrating=200m mfg=Philips
.model FZT849 NPN(IS=5.8591E-13 NF=0.9919 BF=230 IKF=18 VAF=90 ISE=2.0067E-13 NE=1.4 NR=0.9908 BR=180 IKR=6.8 VAR=20 ISC=5.3E-13 NC=1.46 RB=0.023 RE=0.0223 RC=0.015 CJC=200E-12 MJC=0.3006 VJC=0.3532 CJE=1.21E-9 TF=1.07E-9 TR=9.3E-9 Vceo=30 Icrating=7 mfg=Zetex) ; Zetex PLC, Fields New Road, Chadderton, Oldham OL9 8NP
.model ZTX849 ako:FZT849 NPN(Vceo=30 Icrating=7 mfg=Zetex)
.model EndOfStdLib NPN mfg=StartOfCopirateNpnBjt
.model EndOfStd_Lib PNP mfg=StartOfCopiratePnpBjt
.MODEL PBHV9040z ako: PBHV9040T PNP Vceo=400 Icrating=0.25 mfg=NXP ; SOt223
.MODEL BF722 NPN IS=1.766E-14 NF=0.9902 ISE=1.982f NE=1.25 BF=108.1 IKF=0.21 VAF=394 NR=0.99 ISC=9.5E-10 NC=1.95 BR=4.928 IKR=0.045 VAR=57 RB=100 IRB=2E-05 RBM=0.01 RE=0.365 RC=1.5 XTB=0 EG=1.11 XTI=3 CJE=4.181E-11 VJE=0.6301 MJE=0.329 TF=1.303n XTF=35 VTF=5 ITF=0.11 CJC=4.632p VJC=0.2621 MJC=0.4164 XCJC=0.4132 TR=1.9E-07 FC=0.842 Vceo=250 Icrating=100m mfg=NXP
.MODEL 2SC4682 NPN (IS=10f BF=2200 ne=2 ise=300f VAF=100 IKF=1.25 XTB=1.5 BR=400 rc=80m rb=3 VAR=50 IKR=300m nc=2 ISC=10p CJE=500p CJC=70p MJC=.33333 TF=90p tr=5n XTF=10 VTF=10 ITF=1 Vceo=15 Icrating=3 mfg=Toshiba) ;my
.MODEL 2N5962 npn IS=4.67735E-14 BF=1336.1 NF=1 BR=4.49 NR=1.011 ISE=9.12011E-14 NE=2 ISC=3.63078E-16 NC=1.5 VAF=46 VAR=9.33 IKF=0.0436516 IKR=0.0144544 RB=143 RBM=36.064 IRB=5.01187E-4 RE=1.06 RC=1.8 CJE=6.20343p VJE=0.574074 MJE=0.222819 FC=0.5 CJC=4.92525p VJC=0.5 MJC=0.300786 XTB=1.5 EG=1.17 XTI=3 Vceo=45 Icrating=100m mfg=Fairchild
.MODEL MMBT5962 npn IS=4.67735E-14 BF=1336.1 NF=1 BR=4.49 NR=1.011 ISE=9.12011E-14 NE=2 ISC=3.63078E-16 NC=1.5 VAF=46 VAR=9.33 IKF=0.0436516 IKR=0.0144544 RB=143 RBM=36.064 IRB=5.01187E-4 RE=1.06 RC=1.8 CJE=6.20343p VJE=0.574074 MJE=0.222819 FC=0.5 CJC=4.92525p VJC=0.5 MJC=0.300786 XTB=1.5 EG=1.17 XTI=3 Vceo=45 Icrating=100m mfg=Fairchild
