* 1N5711
* diode/schottky/1n5711.mod

.MODEL 1N5711 D (IS=19.7n N=1.51 BV=93.3 IBV=50n RS=6.27 CJO=1.8p VJ=.75 M=.333 XTI=2 EG=.69 TT=10.8p type=Schottky)
