* 1N5819
* diode/schottky/1n5819.mod

.model 1N5819 D(Is=31.7u Rs=.051 N=1.373 Cjo=110p M=.35 Eg=.69 Xti=2)

* Iave: 1
* Vpk: 40
* mfg: OnSemi
* type: Schottky
