* 1N5822
* diode/schottky/1n5822.mod

.MODEL 1N5822 D IS=2.5069u N=1.0281 RS=11.15m IKF=403 CJO=980p M=.47978 VJ=.3905 ISR=5.226u NR=4.995 EG=.69 XTI=2 TT=0 FC=0.5 BV=40 IBV=100u

* Iave: 3
* Vpk: 40
* mfg: ST
* type: Schottky
