* 1N6823
* diode/schottky/1n6823.mod

.model 1N6823 D(Is=4.258u N=1.265 Rs=1.038m Ikf=3.295 Xti=2 Eg=.69 Cjo=11.7n M=.564 Isr=362n Nr=2 Bv=120 Ibv=5m)

* Iave: 150
* Vpk: 100
* mfg: Microsemi
* type: Schottky
