* 30BQ060
* diode/schottky/30bq060.mod

.model 30BQ060 D(Is=10u Rs=.04 N=1.4 Cjo=180p Eg=.69 Xti=2_Rectifier)

* Iave: 3
* Vpk: 60
* mfg: International
* type: Schottky
