* 30BQ015
* diode/schottky/30bq015.mod

.model 30bq015 D is=50u rs=18m n=1.0339 cjo=1400p vj=1.5 m=0.699718 eg=0.6 xti=0.5 fc=0.5 bv=15 ibv=3m Iave=3 Vpk=15 mfg=International_Rectifier type=Schottky
