* B0520WS
* diode/schottky/b0520ws.mod

.MODEL B0520WS D ( IS=1.96u RS=0.131 BV=20.0 IBV=250u CJO=170p M=0.333 N=0.907 TT=7.2n Vpk=20V Iave=0.5A mfg=Diodes_Inc type=Schottky )
