* B550C
* diode/schottky/b550c.mod

.model B550C D(Is=20u Rs=25m Cjo=300p N=1.7 Ikf=10 Isr=100u Nr=2_Inc.)

* Iave: 5
* Vpk: 50
* mfg: Diodes
* type: Schottky
