* BAS70
* diode/schottky/bas70.mod

.model bas70 D is=3n rs=29 n=1.06 tt=25p cjo=1.55p vj=.36 m=.29 eg=.68 xti=1.8 fc=.5 bv=70 ibv=100n

* Vpk: 70
* type: Schottky
