* BAS81
* diode/schottky/bas81.mod

.model BAS81 D(Is=86.03n N=1.678 Rs=11.45 Ikf=914.9u Xti=3 Eg=1.11 Cjo=1.8p M=.3333 Vj=.75 Fc=.5 Isr=15.8E-30 Nr=6.116 Bv=100 Ibv=100u Tt=5n type=Schottky)
