* CSD06060
* diode/schottky/csd06060.mod

.MODEL CSD06060 D(IS=479.17E-6 RS=70.317E-3 N=4.9950 CJO=537.33E-12 M=.40753 BV=800.13 IKF=1.0000E3 VJ=.3905 ISR=10.010E-21 NR=4.9950 IBV=.12937 TT=15.628E-12 Iave=6A Vpk=600V mfg=Cree type=Schottky
