* HSMS-8202
* diode/schottky/hsms-8202.mod

.MODEL HSMS-8202 D (IS=46N RS=6 N=1.08 BV=7.3 IBV=10U CJO=.18P VJ=.5 M=.5 EG=.69 TT=72P)

* Vpk: 4
* mfg: Avago
* type: Schottky
