* HSMS-2820
* diode/schottky/hsms-2820.mod

.model HSMS-2820 d BV=15 CJO=.7p EG=.69 IBV=100u IS=22n N=1.08 RS=6 VJ=.65 XTI=2 M=.5 Vpk=15 type=Schottky mfg=Agilent
