* HSMS-285X
* diode/schottky/hsms-285x.mod

.MODEL HSMS-285x D (IS=3u RS=25 N=1.06 BV=3.8 IBV=300u CJO=.18P VJ=.35 M=.5 EG=.69 XTI=2 TT=72P type=Schottky mfg=Agilent)
