* MBR120LSFT1
* diode/schottky/mbr120lsft1.mod

.MODEL mbr120lsft1 d IS=2.31117u RS=0.0172896 N=1.08118 EG=0.604937 XTI=5 BV=20 IBV=0.00025 CJO=3.23747e-10 VJ=0.401691 M=0.398428 FC=0.5 TT=1n Iave=1 Vpk=20 mfg=ONsemi type=Schottky
