* MBR1635
* diode/schottky/mbr1635.mod

.MODEL MBR1635 D (IS=138u RS=2.62m BV=35 IBV=31u CJO=862p M=0.333 N=1.53 TT=7.20n Vpk=35V Iave=16A mfg=DiodesInc type=Schottky )
