* PDS5100
* diode/schottky/pds5100.mod

.model PDS5100 D(Is=49.0u Rs=7.63m BV=100 IBV=200u Cjo=375p M=0.333 N=1.84 TT=21.6n_Inc.)

* Iave: 5
* Vpk: 100
* mfg: Diodes
* type: Schottky
