* PDS760
* diode/schottky/pds760.mod

.model PDS760 D(Is=360n Rs=.016 N=1.04 Cjo=1200p M=.33 Eg=.69 Xti=2_Inc.)

* Iave: 7
* Vpk: 60
* mfg: Diodes
* type: Schottky
