* PMEG2010AEB
* diode/schottky/pmeg2010aeb.mod

.model PMEG2010AEB D(Is=87.24u Rs=.2728 N=.9699 Cjo=29.99p M=.3755 Eg=.69 Xti=2 BV=22 IBV=.0004 Vj=.2604 Iave=1 Vpk=20 mfg=Philips type=Schottky)
