* PRLL5819
* diode/schottky/prll5819.mod

.MODEL PRLL5819 d IS=6.678E-6 N=1.04 BV=44 IBV=0.01 RS=0.1936 CJO=1.83E-10 VJ=0.3235 M=0.4694 FC=0.5 EG=0.69 XTI=2

* Vpk: 40V
* Iave: 1A
* mfg: NXP
* type: Schottky
