* RB10L-40
* diode/schottky/rb10l-40.mod

.model RB10L-40 D(Is=2.6u Rs=.0674 N=1.163 Cjo=180p M=.6 Eg=.69 Xti=2 Iave=1 Vpk=40 mfg=Rohm type=Schottky)
