* S310
* diode/schottky/s310.mod

.MODEL S310 D IS=5.096E-05 N=1.00 RS=8.2030E-3 IKF=1.2287E-5 CJO=6.0854E-10 M=0.5017 VJ=0.3905 BV=100 IBV=2.5E-4 EG=0.98 Iave=3 Vpk=100 mfg=Fairchild type=Schottky
