* SBL4045PT
* diode/schottky/sbl4045pt.mod

.MODEL SBL4045PT D ( IS=10.9u RS=1.53m BV=45.0 IBV=1.00m CJO=1.33n M=0.333 N=1.08 TT=14.4n )

* Vpk: 45V
* Iave: 40A
* mfg: DiodesInc
* type: Schottky
