* SMS1546
* diode/schottky/sms1546.mod

.model SMS1546 d is=0.3u rs=4 n=1.04 tt=10p cjo=0.38p m=0.36 eg=0.69 xti=2 fc=0.5 bv=3 ibv=10u vj=0.51_Solutions

* Iave: 50m
* Vpk: 2
* mfg: Skyworks
* type: Schottky
