* SMS7630
* diode/schottky/sms7630.mod

.model SMS7630 d is=5u rs=20 n=1.05 tt=10p cjo=0.14p m=0.4 eg=0.69 xti=2 fc=0.5 bv=2 ibv=100u vj=0.34_Solutions

* Iave: 50m
* Vpk: 1
* mfg: Skyworks
* type: Schottky
