* SMS7621
* diode/schottky/sms7621.mod

.model SMS7621 d is=40n rs=12 n=1.05 tt=10p cjo=0.1p m=0.35 eg=0.69 xti=2 fc=0.5 bv=3 ibv=10u vj=0.51 Iave=50m Vpk=2 mfg=Skyworks_Solutions type=Schottky
