* SS12
* diode/schottky/ss12.mod

.MODEL SS12 D IS=8.696e-05 N=1.5 RS=2.2030e-2 CJO=2.2854e-10 M=0.4517 VJ=0.4905 BV=20 IBV=2.5e-4 EG=0.68 TT=1.0e-8 Iave=1 Vpk=20 mfg=Fairchild type=Schottky
