* SS13
* diode/schottky/ss13.mod

.MODEL SS13 D IS=8.696e-05 N=1.5 RS=2.2030e-2 CJO=2.2854e-10 M=0.4517 VJ=0.4905 BV=30 IBV=2.5e-4 EG=0.68 TT=1.0e-8 Iave=1 Vpk=30 mfg=Fairchild type=Schottky
