* SS15
* diode/schottky/ss15.mod

.MODEL SS15 D IS=2.696e-07 N=1.5 RS=5.6030e-2 CJO=2.2854e-10 M=0.4517 VJ=0.4905 BV=50 IBV=2.5e-4 EG=0.68 TT=1.0e-8 Iave=1 Vpk=50 mfg=Fairchild type=Schottky
