* SS19
* diode/schottky/ss19.mod

.MODEL SS19 D IS=5.696e-08 N=1.5 RS=8.2030e-2 CJO=2.2854e-10 M=0.4517 VJ=0.4905 BV=90 IBV=2.5e-4 EG=0.68 TT=1.0e-8 Iave=1 Vpk=90 mfg=Fairchild type=Schottky
