* SS24
* diode/schottky/ss24.mod

.model SS24 D(Is=.4mA Rs=.016 N=2.1 Cjo=800p Eg=.69 Xti=2)

* Iave: 2
* Vpk: 40
* mfg: Fairchild
* type: Schottky
