* SS33
* diode/schottky/ss33.mod

.MODEL SS33 D IS=8.096E-04 N=1.00 RS=8.2030E-3 IKF=1.8287E-5 CJO=1.0854n M=0.4517 VJ=0.3905 BV=30 IBV=2.5E-4 EG=0.68 Iave=3 Vpk=30 mfg=Fairchild type=Schottky
