* SS34
* diode/schottky/ss34.mod

.MODEL SS34 D IS=8.096E-04 N=1.00 RS=8.2030E-3 IKF=1.8287E-5 CJO=1.0854n M=0.4517 VJ=0.3905 BV=40 IBV=2.5E-4 EG=0.68

* Iave: 3
* Vpk: 40
* mfg: Fairchild
* type: Schottky
