* STPS24045TV
* diode/schottky/stps24045tv.mod

.MODEL STPS24045TV D IS=7.9027u N=.46045 RS=699.11u IKF=1.7498u EG=.69 XTI=2 CJO=14.799n M=.50222 VJ=.49431 ISR=17.76u FC=0.5 NR=2.1502 type=Schottky
