* ZHCS1000
* diode/schottky/zhcs1000.mod

.MODEL ZHCS1000 D IS=1.6e-7 N=.59 RS=137m IKF=2.5m XTI=2 EG=.58 CJO=184.9p M=.5231 VJ=.3905 Fc=.5 BV=60 IBV=100u ISR=4u NR=1.8

* Iave: 1
* Vpk: 60
* mfg: Zetex
* type: Schottky
