* ZLLS350
* diode/schottky/zlls350.mod

.MODEL ZLLS350 D IS=14E-8 N=1.03 ISR=90n NR=2 IKF=0.043 BV=56 IBV=0.1m RS=1.2 TT=1n CJO=13.5p VJ=0.6 M=0.33 EG=0.63 XTI=2 TRS1=4m

* Iave: 650m
* Vpk: 40
* mfg: Zetex
* type: Schottky
