* 2SJ162
* mosfet/pmos/2sj162.mod

.MODEL 2SJ162 PMOS (VTO=-842.193M KP=20U L=2U W=21.3317M GAMMA=0 PHI=600M LAMBDA=20.7067M RD=837.199M CBD=2.96862N IS=10F CGSO=1.13517N CGDO=1.13517N TPG=1 UO=600 RG=50 RDS=1MEG )
