* AL307
* diode/led/al307.mod

.MODEL AL307 D (IS=5.493858e-021 N=1.41399 RS=46.6023 TT=5U CJO=5P VJ=750M EG=1.43)

* type: LED
* mfg: USSR
