* HIR5393C-L223
* diode/led/hir5393c-l223.mod

.model HIR5393C/L223 d is=36.4e-21 n=1.262 rs=778m Cjo=100p bv=5 ibv=10u Vpk=5 Iave=350m mfg=Everlight type=LED
