* HLMP-6000
* diode/led/hlmp-6000.mod

.model HLMP-6000 d (IS=93.2P RS=42M N=3.73 BV=4 IBV=10U CJO=2.97P VJ=.75 M=.333)

* Iave: 0.04
* mfg: Avago
* type: LED
