* LED_GAP
* diode/led/led_gap.mod

.model Led_GaP D(IS=7.33f N=2.645 RS=1.472 BV=15.0 IBV=0.5uA CJO=19pF Vj=0.6323 M=0.322 type=Led)
