* LED_GAALAS
* diode/led/led_gaalas.mod

.model Led_GaAlAs D(IS=6.97f N=2.35 RS=1.3772 BV=15.0 IBV=0.5uA CJO=38pF Vj=0.6323 M=0.323)

* type: Led
