* LEDBLUE
* diode/led/ledblue.mod

.MODEL LedBLUE D (IS=93.2P RS=42M N=7.47 BV=5 IBV=10U CJO=2.97P VJ=.75 M=.333 TT=4.32U Iave=40m Vpk=5 type=LED)
