* LEDGREEN
* diode/led/ledgreen.mod

.MODEL LedGreen D (IS=93.2P RS=42M N=4.61 BV=4 IBV=10U CJO=2.97P VJ=.75 M=.333 TT=4.32U Iave=40m Vpk=4 type=LED)
