* LEDWHITE
* diode/led/ledwhite.mod

.model LedWHITE D(Is=0.27n Rs=5.65 N=6.79 Cjo=42p)

* Iave: 30m
* Vpk: 5
* type: LED
