* LUW-W5AP
* diode/led/luw-w5ap.mod

.model LUW-W5AP D(Is=6.572e-8 Rs=.147 N=7.267 Cjo=5n Xti=150 Iave=2000mA mfg=OSRAM type=LED)
