* LUXEON1
* diode/led/luxeon1.mod

.model Luxeon1 D(Is=2.27n Rs=0.25 N=6.79 Cjo=42p)

* Iave: 350m
* mfg: Lumileds
* type: LED
