* LUXSTARW1W
* diode/led/luxstarw1w.mod

.model LuxStarW1w D(Is=2.52144e-017 Rs=0.769946 N=3.33836 Cjo=100p Ipk=500m)

* Iave: 350m
* mfg: Luxeon
* type: LED
