* LUXSTARW5W
* diode/led/luxstarw5w.mod

.model LuxStarW5w D(Is=3.2946e-017 Rs=0.774809 N=6.5979 Cjo=200p Ipk=1000m)

* Iave: 700m
* mfg: Luxeon
* type: LED
