* LUXSTARW1W
* diode/led/luxstarw1w.mod

.model LuxStarW1w D(Is=2.52144e-017 Rs=0.769946 N=3.33836 Cjo=100p Iave=350m Ipk=500m mfg=Luxeon type=LED)
