* LXM2-PL01-VFBIN_F
* diode/led/lxm2-pl01-vfbin_f.mod

.model LXM2-PL01-VFBin_F D(Is=7.7010E-07 Rs=0.7860 N=10.1428)

* Iave: 350m
* mfg: Lumileds
* type: LED
