* LXM3-PW61-VFBIN_C
* diode/led/lxm3-pw61-vfbin_c.mod

.model LXM3-PW61-VFBin_C D(Is=9.9054E-16 Rs=0.3672 N=3.2997)

* Iave: 350m
* mfg: Lumileds
* type: LED
