* LXM3-PW51-VFBIN_C
* diode/led/lxm3-pw51-vfbin_c.mod

.model LXM3-PW51-VFBin_C D(Is=9.9054E-16 Rs=0.3672 N=3.2997)

* Iave: 350m
* mfg: Lumileds
* type: LED
