* LXM3-PW51-VFBIN_E
* diode/led/lxm3-pw51-vfbin_e.mod

.model LXM3-PW51-VFBin_E D(Is=1.2192E-08 Rs=0.6093 N=7.0727)

* Iave: 350m
* mfg: Lumileds
* type: LED
