* LXM3-PW61-VFBIN_G
* diode/led/lxm3-pw61-vfbin_g.mod

.model LXM3-PW61-VFBin_G D(Is=1.6973E-06 Rs=0.7700 N=11.2454)

* Iave: 350m
* mfg: Lumileds
* type: LED
