* LXM3-PW51-VFBIN_D
* diode/led/lxm3-pw51-vfbin_d.mod

.model LXM3-PW51-VFBin_D D(Is=1.5264E-11 Rs=0.4785 N=4.8316 Iave=350m mfg=Lumileds type=LED)
