* LXM8-PW27-VFBIN_R
* diode/led/lxm8-pw27-vfbin_r.mod

.model LXM8-PW27-VFBin_R D(Is=2.5153E-16 Rs=0.3584 N=3.1556 Iave=350m mfg=Lumileds type=LED)
