* LXM8-PW30-VFBIN_S
* diode/led/lxm8-pw30-vfbin_s.mod

.model LXM8-PW30-VFBin_S D(Is=3.6124E-12 Rs=0.4539 N=4.5259)

* Iave: 350m
* mfg: Lumileds
* type: LED
