* LXM8-PW30-VFBIN_R
* diode/led/lxm8-pw30-vfbin_r.mod

.model LXM8-PW30-VFBin_R D(Is=2.5153E-16 Rs=0.3584 N=3.1556 Iave=350m mfg=Lumileds type=LED)
