* LXM8-PW30-VFBIN_T
* diode/led/lxm8-pw30-vfbin_t.mod

.model LXM8-PW30-VFBin_T D(Is=8.7087n Rs=0.5964 N=6.9100)

* Iave: 350m
* mfg: Lumileds
* type: LED
