* LXMA-PW01-VFBIN_G
* diode/led/lxma-pw01-vfbin_g.mod

.model LXMA-PW01-VFBin_G D(Is=1.7159e-06 Rs=0.5122 N=11.4792)

* Iave: 350m
* mfg: Lumileds
* type: LED
