* LXMA-PW01-VFBIN_E
* diode/led/lxma-pw01-vfbin_e.mod

.model LXMA-PW01-VFBin_E D(Is=1.1155n Rs=0.3410 N=6.4431 Iave=350m mfg=Lumileds type=LED)
