* LXMA-PW01-VFBIN_C
* diode/led/lxma-pw01-vfbin_c.mod

.model LXMA-PW01-VFBin_C D(Is=3.0749e-15 Rs=0.2797 N=3.4778)

* Iave: 350m
* mfg: Lumileds
* type: LED
