* LXMA-PW01-VFBIN_D
* diode/led/lxma-pw01-vfbin_d.mod

.model LXMA-PW01-VFBin_D D(Is=3.4288e-11 Rs=0.3057 N=5.2188 Iave=350m mfg=Lumileds type=LED)
