* LXMA-PW01-VFBIN_F
* diode/led/lxma-pw01-vfbin_f.mod

.model LXMA-PW01-VFBin_F D(Is=5.7680e-08 Rs=0.4115 N=8.5775 Iave=350m mfg=Lumileds type=LED)
