* LXML-PH01-AVERAGE
* diode/led/lxml-ph01-average.mod

.model LXML-PH01-average D(Is=3.0677e-10 Rs=2.1217 N=4.2190 Iave=350m mfg=Lumileds type=LED)
