* LXML-PM01-AVERAGE
* diode/led/lxml-pm01-average.mod

.model LXML-PM01-average D(Is=8.0330e-8 Rs=.4818 N=7.0005 Iave=350m mfg=Lumileds type=LED)
