* LXML-PWN2-VFBIN_R
* diode/led/lxml-pwn2-vfbin_r.mod

.model LXML-PWN2-VFBin_R D(Is=5.6664E-17 Rs=0.1919 N=2.9519 Iave=700m mfg=Lumileds type=LED)
