* LXML-PR01-VFBIN_E
* diode/led/lxml-pr01-vfbin_e.mod

.model LXML-PR01-VFBin_E D(Is=1.2192E-08 Rs=0.6093 N=7.0727 Iave=350m mfg=Lumileds type=LED)
