* LXML-PW51-VFBIN_G
* diode/led/lxml-pw51-vfbin_g.mod

.model LXML-PW51-VFBin_G D(Is=1.6973E-06 Rs=0.7700 N=11.2454 Iave=350m mfg=Lumileds type=LED)
