* LXML-PW71-VFBIN_E
* diode/led/lxml-pw71-vfbin_e.mod

.model LXML-PW71-VFBin_E D(Is=1.2192E-08 Rs=0.6093 N=7.0727)

* Iave: 350m
* mfg: Lumileds
* type: LED
