* LXML-PW71-VFBIN_G
* diode/led/lxml-pw71-vfbin_g.mod

.model LXML-PW71-VFBin_G D(Is=1.6973E-06 Rs=0.7700 N=11.2454)

* Iave: 350m
* mfg: Lumileds
* type: LED
