* LXML-PE01-AVERAGE
* diode/led/lxml-pe01-average.mod

.model LXML-PE01-average D(Is=1.9474e-7 Rs=.4891 N=8.1120 Iave=350m mfg=Lumileds type=LED)
