* LXML-PW21-VFBIN_E
* diode/led/lxml-pw21-vfbin_e.mod

.model LXML-PW21-VFBin_E D(Is=1.2192E-08 Rs=0.6093 N=7.0727 Iave=350m mfg=Lumileds type=LED)
