* LXML-PW51-VFBIN_F
* diode/led/lxml-pw51-vfbin_f.mod

.model LXML-PW51-VFBin_F D(Is=7.7010E-07 Rs=0.7860 N=10.1428 Iave=350m mfg=Lumileds type=LED)
