* LXML-PB01-AVERAGE
* diode/led/lxml-pb01-average.mod

.model LXML-PB01-average D(Is=1.3869e-6 Rs=.3958 N=11.1953 Iave=350m mfg=Lumileds type=LED)
