* LXML-PD01-AVERAGE
* diode/led/lxml-pd01-average.mod

.model LXML-PD01-average D(Is=3.5669e-7 Rs=2.4444 N=6.5192 Iave=350m mfg=Lumileds type=LED)
