* LXML-PWN2-VFBIN_S
* diode/led/lxml-pwn2-vfbin_s.mod

.model LXML-PWN2-VFBin_S D(Is=3.6528E-13 Rs=0.2110 N=4.0323)

* Iave: 700m
* mfg: Lumileds
* type: LED
