* LXML-PL01-AVERAGE
* diode/led/lxml-pl01-average.mod

.model LXML-PL01-average D(Is=7.7990e-15 Rs=1.5470 N=2.7626)

* Iave: 350m
* mfg: Lumileds
* type: LED
