* LXML-PWN1-VFBIN_G
* diode/led/lxml-pwn1-vfbin_g.mod

.model LXML-PWN1-VFBin_G D(Is=1.6973E-06 Rs=0.7700 N=11.2454 Iave=350m mfg=Lumileds type=LED)
