* LXML-PW11-VFBIN_F
* diode/led/lxml-pw11-vfbin_f.mod

.model LXML-PW11-VFBin_F D(Is=7.7010E-07 Rs=0.7860 N=10.1428)

* Iave: 350m
* mfg: Lumileds
* type: LED
