* LXML-PWN2-VFBIN_T
* diode/led/lxml-pwn2-vfbin_t.mod

.model LXML-PWN2-VFBin_T D(Is=1.6213E-10 Rs=0.2426 N=5.4770 Iave=700m mfg=Lumileds type=LED)
