* LXML-PWC1-VFBIN_D
* diode/led/lxml-pwc1-vfbin_d.mod

.model LXML-PWC1-VFBin_D D(Is=1.5264E-11 Rs=0.4785 N=4.8316)

* Iave: 350m
* mfg: Lumileds
* type: LED
