* LXML-PWW1-VFBIN_C
* diode/led/lxml-pww1-vfbin_c.mod

.model LXML-PWW1-VFBin_C D(Is=9.9054E-16 Rs=0.3672 N=3.2997)

* Iave: 350m
* mfg: Lumileds
* type: LED
