* NSSW008CT-P1
* diode/led/nssw008ct-p1.mod

.model NSSW008CT-P1 D(Is=.23f Rs=17.6 N=3.43 Cjo=42p Xti=120)

* Iave: 35m
* Vpk: 5
* mfg: Nichia
* type: LED
