* OCI-440_880
* diode/led/oci-440_880.mod

.model OCI-440_880 d is=1.19e-21 n=1.0812 rs=624m Cjo=100p Iave=350mA mfg=OSAOptoLight type=LED
