* SFH4248
* diode/led/sfh4248.mod

.MODEL SFH4248 D IS=1.5f N=1.5702 RS=0.762 IKF=392.82 IBV=10n NBV=1 IBVL=1n NBVL=180 BV=24 CJO=14.6p VJ=0.56 M=0.055 FC=0.4 TT=8n EG=1.3

* mfg: OSRAM
* type: LED
