* SFH4250S
* diode/led/sfh4250s.mod

.MODEL SFH4250S D IS=4.27627E-18 N=2.891664337 RS=0.958461474 IKF=852.1916114 IBV=0.0000025 NBV=6 IBVL=0.00000025 NBVL=180 BV=30 CJO=2.16E-11 VJ=2 M=0.1 FC=0.5 TT=0.00000001 EG=1.46

* mfg: OSRAM
* type: LED
