* SFH4235
* diode/led/sfh4235.mod

.model SFH4235 d is=2.37e-21 n=2.28 rs=125m Cjo=200p Iave=1 bv=1 Vpk=1 mfg=OSRAM type=LED
