* SFH4240
* diode/led/sfh4240.mod

.MODEL SFH4240 D IS=1.50099f N=1.570213683 RS=0.762136823 IKF=392.8188163 IBV=0.00000001 NBV=1 IBVL=0.000000001 NBVL=180 BV=24 CJO=1.46E-11 VJ=0.56 M=0.055 FC=0.4 TT=0.000000008 EG=1.3 mfg=OSRAM type=LED
