* TLSV5100RED
* diode/led/tlsv5100red.mod

.MODEL TLSV5100RED D(IS=2.1e-19 N=1.8 RS=10 Ikf=1.1m Eg=2.3 Cjo=50p Bv=6 Ibv=10u mfg=Vishay type=LED)
