* TLSV5100GREEN
* diode/led/tlsv5100green.mod

.MODEL TLSV5100GREEN D(IS=1.7e-20 N=1.8 RS=8 Ikf=2m Eg=2.4 Cjo=50p Bv=6 Ibv=10u)

* mfg: Vishay
* type: LED
