* UPBLED-470B
* diode/led/upbled-470b.mod

.model UPBLED-470B D(Is=1E-30 N=1.923 Rs=32 Ikf=42.04 Eg=3.6 Cjo=63.87p M=.1513 Vj=2.02 Fc=.5 Isr=1.3m Nr=3.4Meg Bv=12 Ibv=369.5u Tt=432.8n Xti=5 Iave=30m Vpk=8 mfg=Microsemi type=LED)
