* UPWLEDXX
* diode/led/upwledxx.mod

.model UPWLEDxx D(Is=1E-30 N=1.923 Rs=32.09 Eg=3.6 Cjo=63.87p M=.1513 Vj=2.02 Fc=.5 Isr=1.304m Nr=3.4Meg Bv=12 Ibv=369.5u Tt=432.8n Xti=5 Iave=30m Vpk=8 mfg=Microsemi type=LED)
