* VSMY7852X01
* diode/led/vsmy7852x01.mod

.model VSMY7852X01 d is=82.34p n=2.917 rs=703m Cjo=100p bv=5 ibv=10u

* Vpk: 5
* Iave: 250m
* mfg: Vishay
* type: LED
