* W5AP-LZMZ-5K8L
* diode/led/w5ap-lzmz-5k8l.mod

.model W5AP-LZMZ-5K8L D(Is=3.5e-17 Rs=.25 N=3.12 Cjo=2.75n Xti=150 Iave=2 Vpk=5 mfg=Lumileds type=LED)
