* W724C0
* diode/led/w724c0.mod

.model W724C0 D(Is=1.396n N=5.727 Rs=43.6m Ikf=.3128 Xti=3 Eg=3.4 Ipk=2.8 Diss=11.8 mfg=Seoul_Semi type=LED)
