* XLAMPMX3
* diode/led/xlampmx3.mod

.MODEL XlampMX3 D IS=2n N=6.4231 RS=2 XTI=55 EG=2.5 Iave=350m mfg=CREE type=LED
