* XLAMPMX6
* diode/led/xlampmx6.mod

.MODEL XlampMX6 D IS=4.3302E-9 N=6.4231 RS=1.0062 XTI=55 EG=2.5 Iave=1 mfg=CREE type=LED
