* XM-LBLU
* diode/led/xm-lblu.mod

.MODEL XM-LBLU D IS=5.84635E-11 N=5.220712964 RS=0.228138464 XTI=50.63276655 EG=2.5

* mfg: Cree
* type: Led
