* XM-LGRN
* diode/led/xm-lgrn.mod

.MODEL XM-LGRN D IS=2.91045E-07 N=8.795766407 RS=0.386537629 XTI=66.28627594 EG=2.5

* mfg: Cree
* type: Led
