* XM-LRED
* diode/led/xm-lred.mod

.MODEL XM-LRED D IS=1.0659E-13 N=2.780597122 RS=0.545421573 XTI=17.9643995 EG=2.1 mfg=Cree type=Led
