* XM-LWHT
* diode/led/xm-lwht.mod

.MODEL XM-LWHT D IS=1.52113E-11 N=4.936978564 RS=0.209217895 XTI=50.86969482 EG=2.5

* mfg: Cree
* type: Led
