* XP-E2
* diode/led/xp-e2.mod

.model XP-E2 D (IS=5.01824E-16 N=3.36413016 RS=0.244130334 XTI=40.92995615 EG=2.5000 Vpk=5 Iave=1000m mfg=Cree type=LED)
