* 1N1206A
* diode/silicon/1n1206a.mod

.MODEL 1N1206A D (IS=17.1N RS=3.5M N=1.7 BV=600 IBV=397U CJO=495P VJ=0.75 M=0.333 TT=4.32U)

* Vpk: 600V
* Iave: 12
* mfg: IRF
* type: silicon
