* 1N4448HWT
* diode/silicon/1n4448hwt.mod

.MODEL 1N4448HWT D (IS=137f RS=0.168 BV=80 IBV=100n CJO=3.56p M=0.333 N=1.11 TT=5.76n Tt=4ns)

* Vpk: 80V
* Iave: 0.25
* mfg: DiodesInc
* type: silicon
