* 1N5806
* diode/silicon/1n5806.mod

.MODEL 1N5806 D (IS=23.3N RS=33.7M N=1.67 BV=150 IBV=1U CJO=66.3P VJ=.75 M=.333 TT=43.2N Iave=5 Vpk=150 type=silicon)
