* 1N6519
* diode/silicon/1n6519.mod

.model 1N6519 D( IS=0.5U N=37 RS=0.75 TT=70N CJ0=8.87P VJ=14.03 M=0.5 EG=1.11 XTI=3 FC=0.5 BV=12000 IBV=100U Iave=0.5 Vpk=10000 mfg=VMI type=Silicon)
