* 1N6529
* diode/silicon/1n6529.mod

.model 1N6529 D( IS=0.1U N=8.4 RS=0.8 TT=70N CJ0=4.77P VJ=1.23 M=0.5 EG=1.11 XTI=3 FC=0.5 BV=2200 IBV=100U)

* Iave: 0.25
* Vpk: 2000
* mfg: VMI
* type: Silicon
