* 1N6523
* diode/silicon/1n6523.mod

.model 1N6523 D( IS=0.25U N=16 RS=0.48 TT=70N CJ0=4.77P VJ=3.81 M=0.5 EG=1.11 XTI=3 FC=0.5 BV=3600 IBV=100U Iave=0.25 Vpk=3000 mfg=VMI type=Silicon)
