* 1N6533
* diode/silicon/1n6533.mod

.model 1N6533 D( IS=0.1U N=22.8 RS=3.8 TT=70N CJ0=1.44P VJ=7.17 M=0.5 EG=1.11 XTI=3 FC=0.5 BV=6000 IBV=100U Iave=0.05 Vpk=5000 mfg=VMI type=Silicon)
