* 1N6525
* diode/silicon/1n6525.mod

.model 1N6525 D( IS=0.25U N=20.4 RS=0.9 TT=70N CJ0=3.1P VJ=6.73 M=0.5 EG=1.11 XTI=3 FC=0.5 BV=6000 IBV=100U Iave=0.15 Vpk=5000 mfg=VMI type=Silicon)
