* 1N6521
* diode/silicon/1n6521.mod

.model 1N6521 D( IS=0.25U N=6.8 RS=29 TT=70N CJ0=11.94P VJ=1.57 M=0.5 EG=1.11 XTI=3 FC=0.5 BV=2200 IBV=100U)

* Iave: 0.6
* Vpk: 2000
* mfg: VMI
* type: Silicon
