* 1N6515
* diode/silicon/1n6515.mod

.model 1N6515 D( IS=0.5U N=13.5 RS=0.18 TT=70N CJ0=35.24P VJ=3.29 M=0.5 EG=1.11 XTI=3 FC=0.5 BV=3600 IBV=100U Iave=1.5 Vpk=3000 mfg=VMI type=Silicon)
