* 1N6535
* diode/silicon/1n6535.mod

.model 1N6535 D( IS=0.1U N=54 RS=14 TT=70N CJ0=0.68P VJ=16.15 M=0.5 EG=1.11 XTI=3 FC=0.5 BV=12000 IBV=100U)

* Iave: 0.025
* Vpk: 10000
* mfg: VMI
* type: Silicon
