* 1N6517
* diode/silicon/1n6517.mod

.model 1N6517 D( IS=0.5U N=19.2 RS=0.36 TT=70N CJ0=22.76P VJ=6.41 M=0.5 EG=1.11 XTI=3 FC=0.5 BV=6000 IBV=100U Iave=1 Vpk=5000 mfg=VMI type=Silicon)
