* 1N6513
* diode/silicon/1n6513.mod

.model 1N6513 D( IS=0.0000005 N=7.2 RS=0.14 TT=70n CJ0=56.64p VJ=1.67 M=0.5 EG=1.11 XTI=3 FC=0.5 BV=2200 IBV=100u)

* Iave: 2
* Vpk: 2000
* mfg: VMI
* type: Silicon
