* 1N6531
* diode/silicon/1n6531.mod

.model 1N6531 D( IS=0.1U N=16.3 RS=1 TT=70N CJ0=1.92P VJ=6.21 M=0.5 EG=1.11 XTI=3 FC=0.5 BV=3600 IBV=100U)

* Iave: 0.15
* Vpk: 3000
* mfg: VMI
* type: Silicon
