* 1N6527
* diode/silicon/1n6527.mod

.model 1N6527 D( IS=0.25U N=38.4 RS=1.8 TT=70N CJ0=1.45P VJ=17.06 M=0.5 EG=1.11 XTI=3 FC=0.5 BV=12000 IBV=100U Iave=0.15 Vpk=10000 mfg=VMI type=Silicon)
