* 1SS226
* diode/silicon/1ss226.mod

.model 1SS226 D(Is=5.157n N=1.903 Rs=.7407 Ikf=0 Xti=3 Eg=1.11 Cjo=879.9f M=.1335 Vj=11.85 Fc=.5 Isr=3.476n Nr=1.945 Bv=85 Ibv=100u Tt=2.308n)

* Iave: 100m
* Vpk: 80
* mfg: Toshiba
* type: silicon
