* BAS116
* diode/silicon/bas116.mod

.MODEL BAS116 D(BV=75 CJO=1.83p EG=1.11 FC=0.5 IBV=100u IS=1.48E-13 M=0.262 N=1.33 RS=8.48E-01 TT=8.66n VJ=3.44E-01 XTI=3)

* type: silicon
