* BAS21
* diode/silicon/bas21.mod

.MODEL BAS21 D ( IS=41.7n RS=0.270 BV=200 IBV=100n CJO=2.98p M=0.333 N=2.35 TT=72.0n )

* Vpk: 200V
* Iave: 0.400A
* mfg: DiodesInc
* type: silicon
