* BAS316
* diode/silicon/bas316.mod

.MODEL BAS316 D IS=6.0289n N=2.1283 RS=1m IKF=37.638m CJO=593.63f M=.1 VJ=.68774 ISR=2.0646n NR=4.995 BV=113.6 IBV=10 TT=4.5n Iave=200m Vpk=75 mfg=NXP type=silicon
