* BYW96E
* diode/silicon/byw96e.mod

.Model BYW96E D(IS=59.77971E-6 N=3.61403 RS=52.308E-3 IKF=0.566356 CJO=27.010E-12 M=.43978 VJ=.81612 ISR=447.9139E-9 NR=2.54303 BV=1.2003E3 IBV=2.5910 TT=295.54E-9)

* Iave: 3
* Vpk: 1000
* mfg: Philips
* type: Silicon
