* D237B
* diode/silicon/d237b.mod

.model D237B D(Is=31.69p Rs=91.07m N=1 Xti=3 Eg=1.11 Bv=400.1 Ibv=158.5u Cjo=15p Vj=.75 M=.3333 Fc=.5 Tt=721.3n)

* mfg: USSR
* type: silicon
