* D237A
* diode/silicon/d237a.mod

.Model D237A D(Is=31.69p N=1 Rs=91.07m Cjo=13p Tt=721.3n M=0.25 Vj=0.75 Fc=0.5 Bv=200 IBv=1e-11 Eg=1.11 Xti=3)

* mfg: USSR
* type: silicon
