* D237J
* diode/silicon/d237j.mod

.model D237J D(Is=28.72p Rs=51.27m N=1 Xti=3 Eg=1.11 Bv=400.1 Ibv=158.5u Cjo=15p Vj=.75 M=.3333 Fc=.5 Tt=721.3n)

* mfg: USSR
* type: silicon
