* D237V
* diode/silicon/d237v.mod

.model D237V D(Is=76.09p Rs=.4451 N=1 Xti=3 Eg=1.11 Bv=600.1 Ibv=158.5u Cjo=15p Vj=.75 M=.3333 Fc=.5 Tt=721.3n mfg=USSR type=silicon)
