* DA2JF81
* diode/silicon/da2jf81.mod

.MODEL DA2JF81 D IS=10.55E-10 N=1.85 RS=320.8E-2 IKF=98.0932u CJO=552.75f M=0.49251 VJ=0.75 FC=0.5 ISR=8.238205E-11 NR=1.7 BV=900 IBV=100u TT=22n EG=1.11 XTI=2.5 TRS1=0.001 Vpk=800V Iave=200mA mfg=Panasonic type=silicon
