* DI_2W08G
* diode/silicon/di_2w08g.mod

.MODEL DI_2W08G D ( IS=28.4n RS=21.1m BV=800 IBV=5.00u CJO=29.6p M=0.333 N=1.95 TT=4.32u )

* Vpk: 800V
* Iave: 2.00A
* mfg: DiodesInc
* type: silicon
