* DI_2W10G
* diode/silicon/di_2w10g.mod

.MODEL DI_2W10G D ( IS=28.4n RS=21.1m BV=1.00k IBV=5.00u CJO=29.6p M=0.333 N=1.95 TT=4.32u )

* Vpk: 1.00kV
* Iave: 2.00A
* mfg: DiodesInc
* type: silicon
