* DI_2W01G
* diode/silicon/di_2w01g.mod

.MODEL DI_2W01G D ( IS=28.4n RS=21.1m BV=100 IBV=5.00u CJO=29.6p M=0.333 N=1.95 TT=4.32u Vpk=100V Iave=2.00A mfg=DiodesInc type=silicon )
