* DI_2W06G
* diode/silicon/di_2w06g.mod

.MODEL DI_2W06G D ( IS=28.4n RS=21.1m BV=600 IBV=5.00u CJO=29.6p M=0.333 N=1.95 TT=4.32u Vpk=600V Iave=2.00A mfg=DiodesInc type=silicon )
