* DI_2W04G
* diode/silicon/di_2w04g.mod

.MODEL DI_2W04G D ( IS=28.4n RS=21.1m BV=400 IBV=5.00u CJO=29.6p M=0.333 N=1.95 TT=4.32u )

* Vpk: 400V
* Iave: 2.00A
* mfg: DiodesInc
* type: silicon
