* DI_BAS21
* diode/silicon/di_bas21.mod

.MODEL DI_BAS21 D ( IS=41.7n RS=0.270 BV=200 IBV=100n CJO=2.98p M=0.333 N=2.35 TT=72n )

* Vpk: 200V
* Iave: 0.4
* mfg: DiodesInc
* type: silicon
