* DI_BAS21W
* diode/silicon/di_bas21w.mod

.MODEL DI_BAS21W D ( IS=114n RS=0.172 BV=200 IBV=100n CJO=2.98p M=0.333 N=2.58 TT=72n Vpk=200V Iave=0.4 mfg=DiodesInc type=silicon )
