* DI_BAS21T
* diode/silicon/di_bas21t.mod

.MODEL DI_BAS21T D ( IS=401n RS=0.105 BV=200 IBV=100n CJO=5.00p M=0.333 N=2.87 TT=72n Vpk=200V Iave=0.4 mfg=DiodesInc type=silicon )
