* DI_DF10S
* diode/silicon/di_df10s.mod

.MODEL DI_DF10S D ( IS=4.42n RS=42.0m BV=1.00k IBV=10.0u CJO=65.0p M=0.333 N=1.70 TT=4.32u Vpk=1.00kV Iave=1.00A mfg=DiodesInc type=silicon )
