* DI_RS3A
* diode/silicon/di_rs3a.mod

.MODEL DI_RS3A D ( IS=200n RS=25.4m BV=50.0 IBV=5.00u CJO=92.5p M=0.333 N=2.23 TT=216n Vpk=50.0V Iave=3.00A mfg=DiodesInc type=silicon )
