* DI_RS3JB
* diode/silicon/di_rs3jb.mod

.MODEL DI_RS3JB D ( IS=200n RS=25.4m BV=600 IBV=5.00u CJO=92.5p M=0.333 N=2.23 TT=360n )

* Vpk: 600V
* Iave: 3.00A
* mfg: DiodesInc
* type: silicon
