* DI_RS3DB
* diode/silicon/di_rs3db.mod

.MODEL DI_RS3DB D ( IS=200n RS=25.4m BV=200 IBV=5.00u CJO=92.5p M=0.333 N=2.23 TT=216n )

* Vpk: 200V
* Iave: 3.00A
* mfg: DiodesInc
* type: silicon
