* DI_RS3KB
* diode/silicon/di_rs3kb.mod

.MODEL DI_RS3KB D ( IS=200n RS=25.4m BV=800 IBV=5.00u CJO=92.5p M=0.333 N=2.23 TT=720n )

* Vpk: 800V
* Iave: 3.00A
* mfg: DiodesInc
* type: silicon
