* DI_RS3M
* diode/silicon/di_rs3m.mod

.MODEL DI_RS3M D ( IS=200n RS=25.4m BV=1.00k IBV=5.00u CJO=92.5p M=0.333 N=2.23 TT=720n Vpk=1.00kV Iave=3.00A mfg=DiodesInc type=silicon )
