* DI_RS3BB
* diode/silicon/di_rs3bb.mod

.MODEL DI_RS3BB D ( IS=200n RS=25.4m BV=100 IBV=5.00u CJO=92.5p M=0.333 N=2.23 TT=216n )

* Vpk: 100V
* Iave: 3.00A
* mfg: DiodesInc
* type: silicon
