* DI_RS3G
* diode/silicon/di_rs3g.mod

.MODEL DI_RS3G D ( IS=200n RS=25.4m BV=400 IBV=5.00u CJO=92.5p M=0.333 N=2.23 TT=216n Vpk=400V Iave=3.00A mfg=DiodesInc type=silicon )
