* DI_US1B
* diode/silicon/di_us1b.mod

.MODEL DI_US1B D ( IS=667n RS=72.0m BV=100 IBV=5.00u CJO=37.0p M=0.333 N=2.41 TT=72.0n Vpk=100V Iave=1.00A mfg=DiodesInc type=silicon )
