* DI_US1K
* diode/silicon/di_us1k.mod

.MODEL DI_US1K D ( IS=709n RS=82.3m BV=800 IBV=5.00u CJO=18.5p M=0.333 N=3.23 TT=108n Vpk=800V Iave=1.00A mfg=DiodesInc type=silicon )
