* DI_US1G
* diode/silicon/di_us1g.mod

.MODEL DI_US1G D ( IS=540p RS=0.116 BV=400 IBV=5.00u CJO=37.0p M=0.333 N=1.70 TT=72.0n Vpk=400V Iave=1.00A mfg=DiodesInc type=silicon )
