* DI_US1M
* diode/silicon/di_us1m.mod

.MODEL DI_US1M D ( IS=709n RS=82.3m BV=1.00k IBV=5.00u CJO=18.5p M=0.333 N=3.23 TT=108n )

* Vpk: 1.00kV
* Iave: 1.00A
* mfg: DiodesInc
* type: silicon
