* DI_US1A
* diode/silicon/di_us1a.mod

.MODEL DI_US1A D ( IS=667n RS=72.0m BV=50.0 IBV=5.00u CJO=37.0p M=0.333 N=2.41 TT=72.0n )

* Vpk: 50.0V
* Iave: 1.00A
* mfg: DiodesInc
* type: silicon
