* DI_US1D
* diode/silicon/di_us1d.mod

.MODEL DI_US1D D ( IS=667n RS=72.0m BV=200 IBV=5.00u CJO=37.0p M=0.333 N=2.41 TT=72.0n )

* Vpk: 200V
* Iave: 1.00A
* mfg: DiodesInc
* type: silicon
