* DI_US1J
* diode/silicon/di_us1j.mod

.MODEL DI_US1J D ( IS=709n RS=82.3m BV=600 IBV=5.00u CJO=18.5p M=0.333 N=3.23 TT=108n )

* Vpk: 600V
* Iave: 1.00A
* mfg: DiodesInc
* type: silicon
