* DSEP29-12A
* diode/silicon/dsep29-12a.mod

.MODEL DSEP29-12A D(IS=2.6918E-6 N=4.9950 RS=18.105E-3 IKF=999 CJO=1.0000E-12 M=.3333 VJ=.75 ISR=21.145E-6 BV=1.2001E3 IBV=2.1553E-3 TT=16.681E-9 mfg=IXYS type=silicon Vpk=1200.0V Iave=29.0A)
