* DSEP8-12A
* diode/silicon/dsep8-12a.mod

.MODEL DSEP8-12A D(IS=3.7288E-6 N=4.9950 RS=72.502E-3 IKF=999 CJO=1.0000E-12 M=.3333 VJ=.75 ISR=4.8113E-6 BV=1.2002E3 IBV=21.554E-3 TT=31.929E-9)

* mfg: IXYS
* type: silicon
* Vpk: 1200.0V
* Iave: 8.0A
