* ES1C
* diode/silicon/es1c.mod

.MODEL ES1C D IS=123n RS=42.0m BV=150 IBV=5.00u CJO=18.5p M=0.333 N=2.12 TT=28.8n )

* Vpk: 150V
* Iave: 1
* mfg: DiodesInc
* type: silicon
