* FES16GT
* diode/silicon/fes16gt.mod

.model fes16gt d is=9.18249E-006 n=2.87442 rs=0.00352225 eg=1.29002 xti=3.87546 cjo=3.75068E-010 vj=0.700001 m=0.406785 fc=0.5 tt=4.93261E-008 bv=440 ibv=15

* mfg: Vishay
* type: silicon
