* GI250-4
* diode/silicon/gi250-4.mod

.model GI250-4 D(Is=5u Rs=3 N=1.2 EG=1.11 XTI=3 BV=4200 IBV=1e-04 Cjo=3p Vj=3.5 M=.5 tt=30n)

* Iave: .25
* Vpk: 4200
* mfg: VISHAY
* type: silicon
