* GL34G
* diode/silicon/gl34g.mod

.model gl34g d is=1E-007 n=2.32276 rs=0.0734855 eg=1.11 xti=3 cjo=7.42627p vj=1.5489 m=0.393575 fc=0.5 tt=3.51448u bv=440 ibv=0.5

* Vpk: 400V
* Iave: 500mA
* mfg: Vishay
* type: silicon
