* GL34M
* diode/silicon/gl34m.mod

.model gl34m d is=1E-007 n=2.32276 rs=0.075 eg=1.11 xti=3 cjo=7.42627p vj=1.5489 m=0.393575 fc=0.5 tt=3.51448u bv=1040 ibv=0.5 Vpk=1000V Iave=500mA mfg=Vishay type=silicon
