* K100UF
* diode/silicon/k100uf.mod

.model K100UF D( IS=1U N=35 RS=0.1 TT=100N CJ0=34.76P VJ=8.75 M=0.5 EG=1.11 XTI=3 FC=0.5 BV=12000 IBV=100U)

* Iave: 1.5
* Vpk: 10000
* mfg: VMI
* type: Silicon
