* K25S
* diode/silicon/k25s.mod

.model K25S D( IS=1U N=8.2 RS=0.002 TT=3000N CJ0=103.9P VJ=3.51 M=0.5 EG=1.11 XTI=3 FC=0.5 BV=3600 IBV=100U)

* Iave: 3
* Vpk: 2500
* mfg: VMI
* type: Silicon
