* K25UF
* diode/silicon/k25uf.mod

.model K25UF D( IS=1U N=11 RS=0.08 TT=100N CJ0=102.5P VJ=3.27 M=0.5 EG=1.11 XTI=3 FC=0.5 BV=3600 IBV=100U Iave=3 Vpk=2500 mfg=VMI type=Silicon)
