* K50UF
* diode/silicon/k50uf.mod

.model K50UF D( IS=1U N=16 RS=0.15 TT=100N CJ0=68.46P VJ=4.27 M=0.5 EG=1.11 XTI=3 FC=0.5 BV=6000 IBV=100U)

* Iave: 2.2
* Vpk: 5000
* mfg: VMI
* type: Silicon
