* KD102A
* diode/silicon/kd102a.mod

.Model KD102A D(Is=21.66p N=1.28 Rs=1.79 Cjo=3.27p Tt=6.12e-9 M=0.32 Vj=0.71 Fc=0.5 Bv=250 IBv=1e-11 Eg=1.11 Xti=3)

* mfg: USSR
* type: silicon
