* KD104A
* diode/silicon/kd104a.mod

.Model KD104A D(Is=5.812p N=1.15 Rs=8.1 Cjo=41.2p Tt=8.28e-9 M=0.33 Vj=0.71 Fc=0.5 Bv=300 IBv=1e-11 Eg=1.11 Xti=3 mfg=USSR type=silicon)
