* KD103A
* diode/silicon/kd103a.mod

.Model KD103A D(Is=67.08p N=1.21 Rs=1.43 Cjo=8.58p Tt=4.15e-9 M=0.31 Vj=0.72 Fc=0.5 Bv=75 IBv=1e-11 Eg=1.11 Xti=3 mfg=USSR type=silicon)
