* KD106A
* diode/silicon/kd106a.mod

.Model KD106A D(Is=114.3p N=1.23 Rs=6.3e-2 Cjo=130p Tt=3.85e-8 M=0.33 Vj=0.71 Fc=0.5 Bv=100 IBv=1e-10 Eg=1.11 Xti=3 mfg=USSR type=silicon)
