* KD105B
* diode/silicon/kd105b.mod

.Model KD105B D(Is=84.26p N=1.11 Rs=0.12 Cjo=120p Tt=1.08e-8 M=0.33 Vj=0.71 Fc=0.5 Bv=400 IBv=1e-11 Eg=1.11 Xti=3)

* mfg: USSR
* type: silicon
