* KD102B
* diode/silicon/kd102b.mod

.model KD102B D(Is=910.8f Rs=6.325 N=1 Xti=3 Eg=1.11 Bv=300.2 Ibv=1.521m Cjo=3.27p Vj=.71 M=.32 Fc=.5 Tt=6.12e-9 mfg=USSR type=silicon)
