* KD203B
* diode/silicon/kd203b.mod

.model KD203B D(Is=303.3f Rs=30.57m N=1 Xti=3 Eg=1.11 Bv=799.9 Ibv=7.607u Cjo=21.2p Vj=.73 M=.28 Fc=.5 Tt=9.09e-7 mfg=USSR type=silicon)
