* KD204V
* diode/silicon/kd204v.mod

.model KD204V D(Is=5.849f Rs=23.7m N=1 Xti=3 Eg=1.11 Bv=50.12 Ibv=517.3u Cjo=35p Vj=.75 M=.3333 Fc=.5 Tt=1.16e-7)

* mfg: USSR
* type: silicon
