* KD202K
* diode/silicon/kd202k.mod

.model KD202K D(Is=4.012n Rs=4.7e-2 N=1.56 Xti=3 Eg=1.11 Bv=400 Ibv=1e-10 Cjo=82p Vj=.75 M=.38 Fc=.5 Tt=3.12e-7)

* mfg: USSR
* type: silicon
