* KD203G
* diode/silicon/kd203g.mod

.model KD203G D(Is=303.3f Rs=30.57m N=1 Xti=3 Eg=1.11 Bv=999.9 Ibv=7.607u Cjo=21.2p Vj=.73 M=.28 Fc=.5 Tt=9.09e-7 mfg=USSR type=silicon)
