* KD209A
* diode/silicon/kd209a.mod

.Model KD209A D(Is=62.2p N=1.23 Rs=0.17 Cjo=16.2 Tt=7.21e-7 M=0.35 Vj=0.68 Fc=0.5 Bv=600 IBv=1e-10 Eg=1.11 Xti=3)

* mfg: USSR
* type: silicon
