* KD202D
* diode/silicon/kd202d.mod

.Model KD202D D(Is=4.012n N=1.56 Rs=4.7e-2 Cjo=82p Tt=3.19e-7 M=0.38 Vj=0.75 Fc=0.5 Bv=200 IBv=1e-10 Eg=1.11 Xti=3)

* mfg: USSR
* type: silicon
