* KD208A
* diode/silicon/kd208a.mod

.Model KD208A D(Is=181p N=1.31 Rs=0.12 Cjo=96.3p Tt=2.23e-7 M=0.38 Vj=0.68 Fc=0.5 Bv=100 IBv=1e-10 Eg=1.11 Xti=3 mfg=USSR type=silicon)
