* KD204A
* diode/silicon/kd204a.mod

.Model KD204A D(Is=4.110n N=1.52 Rs=7.5e-2 Cjo=31.5p Tt=1.16e-7 M=0.35 Vj=0.68 Fc=0.5 Bv=400 IBv=1e-10 Eg=1.11 Xti=3)

* mfg: USSR
* type: silicon
