* KD204B
* diode/silicon/kd204b.mod

.model KD204B D(Is=6.335f Rs=64.96m N=1 Xti=3 Eg=1.11 Bv=200.1 Ibv=161.7u Cjo=35p Vj=.75 M=.3333 Fc=.5 Tt=1.16e-7 mfg=USSR type=silicon)
