* KD203A
* diode/silicon/kd203a.mod

.Model KD203A D(Is=2.98n N=1.52 Rs=9.3e-3 Cjo=21.2p Tt=9.09e-7 M=0.28 Vj=0.73 Fc=0.5 Bv=600 IBv=1e-10 Eg=1.11 Xti=3 mfg=USSR type=silicon)
