* KD203D
* diode/silicon/kd203d.mod

.model KD203D D(Is=268.8f Rs=14.95m N=1 Xti=3 Eg=1.11 Bv=999.9 Ibv=7.607u Cjo=21.2p Vj=.73 M=.28 Fc=.5 Tt=9.09e-7)

* mfg: USSR
* type: silicon
