* KD213G
* diode/silicon/kd213g.mod

.model KD213G D(Is=64.72p Rs=25.34m N=1 Xti=3 Eg=1.11 Bv=200.1 Ibv=258.6u Cjo=2.496n Vj=.75 M=.3333 Fc=.5 Tt=173.1n mfg=USSR type=silicon)
