* KD212B
* diode/silicon/kd212b.mod

.model KD212B D(Is=8.272p Rs=.107 N=1 Xti=3 Eg=1.11 Bv=100.2 Ibv=783.8u Cjo=150p Vj=.75 M=.25 Fc=.5 Tt=360.7n mfg=USSR type=silicon)
