* KD212A
* diode/silicon/kd212a.mod

.Model KD212A D(Is=1.26p N=1.1 Rs=0.11 Cjo=140.7p Tt=1.27e-8 M=0.26 Vj=0.73 Fc=0.5 Bv=200 IBv=1e-10 Eg=1.11 Xti=3)

* mfg: USSR
* type: silicon
