* KD213V
* diode/silicon/kd213v.mod

.model KD213V D(Is=20.83p Rs=19.59m N=1 Xti=3 Eg=1.11 Bv=100.1 Ibv=258.6u Cjo=2.496n Vj=.75 M=.3333 Fc=.5 Tt=252.5n)

* mfg: USSR
* type: silicon
