* KD213B
* diode/silicon/kd213b.mod

.model KD213B D(Is=124.72p Rs=25.34m N=1 Xti=3 Eg=1.11 Bv=200.1 Ibv=258.6u Cjo=249.6p Vj=.75 M=.33 Fc=.5 Tt=173.1n mfg=USSR type=silicon)
