* KD219A
* diode/silicon/kd219a.mod

.Model KD219A D(Is=57.60n N=1.12 Rs=3m Cjo=63.1p Tt=1.23n M=0.33 Vj=0.54 Fc=0.5 Bv=15 IBv=1e-11 Eg=1.11 Xti=3 mfg=USSR type=silicon)
