* KD220A
* diode/silicon/kd220a.mod

.Model KD220A D(Is=11.20n N=1.25 Rs=7.1e-2 Cjo=164.5p Tt=1.23e-9 M=0.33 Vj=0.65 Fc=0.5 Bv=400 IBv=1e-11 Eg=1.11 Xti=3)

* mfg: USSR
* type: silicon
