* KD2997A
* diode/silicon/kd2997a.mod

.model KD2997A d(IS=3.28E-07 N=1.544 RS=0.003938 m=0.552 Vj=25.06 Cjo=1007.45pF IBV=2.00E-04 BV=250.0 TT=158.4n EG=1.11 XTI=3)

* Iave: 30
* Vpk: 250
* mfg: USSR
* type: silicon
