* KD2999A
* diode/silicon/kd2999a.mod

.model KD2999A d(IS=2.19E-07 N=1.544 RS=0.006 m=0.552 Vj=25.06 Cjo=700pF IBV=2.00E-04 BV=250.0 TT=158.4n EG=1.11 XTI=3)

* Iave: 20
* Vpk: 250
* mfg: USSR
* type: silicon
