* KD503A
* diode/silicon/kd503a.mod

.Model KD503A D(Is=7.920e-13 N=1.11 Rs=2.3 Cjo=1.45p Tt=2.19e-9 M=0.27 Vj=0.71 Fc=0.5 Bv=30 IBv=1e-11 Eg=1.11 Xti=3 mfg=USSR type=silicon)
