* KD509A
* diode/silicon/kd509a.mod

.Model KD509A D(Is=1.14p N=1.12 Rs=2.1 Cjo=2.15p Tt=3.25e-9 M=0.33 Vj=0.71 Fc=0.5 Bv=50 IBv=1e-11 Eg=1.11 Xti=3)

* mfg: USSR
* type: silicon
