* KD512A
* diode/silicon/kd512a.mod

.Model KD512A D(Is=2.120f N=1.0 Rs=9.2 Cjo=0.85p Tt=.961e-9 M=0.25 Vj=0.69 Fc=0.5 Bv=15 IBv=1e-11 Eg=1.11 Xti=3 mfg=USSR type=silicon)
