* KD513A
* diode/silicon/kd513a.mod

.Model KD513A D(Is=568.0f N=1.11 Rs=1.6 Cjo=1.81p Tt=.850e-9 M=0.31 Vj=0.69 Fc=0.5 Bv=50 IBv=1e-11 Eg=1.11 Xti=3 mfg=USSR type=silicon)
