* KD510A
* diode/silicon/kd510a.mod

.model KD510A D(Is=528.2f Rs=1.302 N=1 Xti=3 Eg=1.11 Bv=70.23 Ibv=3.233m Cjo=3p Vj=.75 M=.25 Fc=.5 Tt=1.443n mfg=USSR type=silicon)
