* KD521A
* diode/silicon/kd521a.mod

.Model KD521A D(Is=115f N=1.0 Rs=3.21 Cjo=2.25p Tt=3.12e-9 M=0.26 Vj=0.68 Fc=0.5 Bv=75 IBv=1e-11 Eg=1.11 Xti=3 mfg=USSR type=silicon)
