* KD522B
* diode/silicon/kd522b.mod

.model KD522B D(Is=72.71f Rs=2.662 N=1 Xti=3 Eg=1.11 Bv=50.23 Ibv=862.1u Cjo=2.6p Vj=.75 M=.15 Fc=.5 Tt=1.443n)

* mfg: USSR
* type: silicon
