* KD522A
* diode/silicon/kd522a.mod

.Model KD522A D(Is=227f N=1.1 Rs=1.17 Cjo=1.83p Tt=2.38e-9 M=0.25 Vj=0.68 Fc=0.5 Bv=50 IBv=1e-11 Eg=1.11 Xti=3)

* mfg: USSR
* type: silicon
