* KD520A
* diode/silicon/kd520a.mod

.Model KD520A D(Is=618.0f N=1.12 Rs=6.3 Cjo=2.35p Tt=1.44e-9 M=0.33 Vj=0.68 Fc=0.5 Bv=15 IBv=1e-11 Eg=1.11 Xti=3)

* mfg: USSR
* type: silicon
