* KD906A
* diode/silicon/kd906a.mod

.model KD906A D(Is=718.1f Rs=2.763 N=1 Xti=3 Eg=1.11 Bv=140.3 Ibv=1.847m Cjo=27.15p Vj=.75 M=.15 Fc=.5 Tt=179.8n mfg=USSR type=silicon)
