* M100FF3
* diode/silicon/m100ff3.mod

.model M100FF3 D( IS=0.1U N=70 RS=30 TT=30N CJ0=0.66P VJ=15.52 M=0.5 EG=1.11 XTI=3 FC=0.5 BV=12000 IBV=100U Iave=0.025 Vpk=10000 mfg=VMI type=Silicon)
