* M100SG
* diode/silicon/m100sg.mod

.model M100SG D( IS=0.1U N=28.8 RS=0.3 TT=3000N CJ0=0.77P VJ=15.92 M=0.5 EG=1.11 XTI=3 FC=0.5 BV=12000 IBV=100U Iave=0.025 Vpk=10000 mfg=VMI type=Silicon)
