* M160UFG
* diode/silicon/m160ufg.mod

.model M160UFG D( IS=0.1U N=65 RS=40 TT=70N CJ0=0.43P VJ=19.22 M=0.5 EG=1.11 XTI=3 FC=0.5 BV=20000 IBV=100U Iave=0.01 Vpk=16000 mfg=VMI type=Silicon)
