* M160SG
* diode/silicon/m160sg.mod

.model M160SG D( IS=0.1U N=46.25 RS=2.5 TT=3000N CJ0=0.45P VJ=28.44 M=0.5 EG=1.11 XTI=3 FC=0.5 BV=20000 IBV=100U)

* Iave: 0.01
* Vpk: 16000
* mfg: VMI
* type: Silicon
