* M160FF3
* diode/silicon/m160ff3.mod

.model M160FF3 D( IS=0.1U N=4.4 RS=13.8 TT=30N CJ0=0.43P VJ=19.22 M=0.5 EG=1.11 XTI=3 FC=0.5 BV=20000 IBV=100U Iave=0.01 Vpk=16000 mfg=VMI type=Silicon)
