* M25SG
* diode/silicon/m25sg.mod

.model M25SG D( IS=0.1U N=9.5 RS=0.3 TT=3000N CJ0=2.22P VJ=6.76 M=0.5 EG=1.11 XTI=3 FC=0.5 BV=3600 IBV=100U)

* Iave: 0.1
* Vpk: 2500
* mfg: VMI
* type: Silicon
