* M50FF3
* diode/silicon/m50ff3.mod

.model M50FF3 D( IS=0.1U N=40 RS=20 TT=30N CJ0=1.25P VJ=9.64 M=0.5 EG=1.11 XTI=3 FC=0.5 BV=6000 IBV=100U)

* Iave: 0.04
* Vpk: 5000
* mfg: VMI
* type: Silicon
