* M50SG
* diode/silicon/m50sg.mod

.model M50SG D( IS=0.1U N=14.4 RS=1 TT=3000N CJ0=1.45P VJ=7.31 M=0.5 EG=1.11 XTI=3 FC=0.5 BV=6000 IBV=100U Iave=0.05 Vpk=5000 mfg=VMI type=Silicon)
