* MD90FF25
* diode/silicon/md90ff25.mod

.model MD90FF25 D( IS=1U N=16.5 RS=1.9 TT=30N CJ0=8.23P VJ=1.41 M=0.5 EG=1.11 XTI=3 FC=0.5 BV=2500 IBV=100U)

* Iave: 0.35
* Vpk: 2500
* mfg: VMI
* type: Silicon
