* MR760
* diode/silicon/mr760.mod

.model MR760 D(IS=5.86764e-08 RS=0.00170261 N=1.7374 EG=0.6 XTI=0.5 BV=1000 IBV=2.5e-05 CJO=1.33832n VJ=0.4 M=0.708966 FC=0.5 TT=5.45339e-06)

* Iave: 6
* Vpk: 1000
* mfg: GI
* type: silicon
