* MUR160-M
* diode/silicon/mur160-m.mod

.model MUR160-M D(Is=1.043p Rs=74.44m Ikf=2.705m N=1 Xti=2 Eg=1.11 Cjo=28.43p M=.6225 Vj=.75 Fc=.5 Isr=7.011n Nr=2 Tt=123.3n Iave=1.0A Vpk=600.0V mfg=Motorola type=silicon)
