* MUR1560
* diode/silicon/mur1560.mod

.model MUR1560 D(Is=95.51p Rs=46.69m Ikf=8.883m N=1 Xti=6 Eg=1.11 Cjo=525.4p M=.414 Vj=.75 Fc=.5 Isr=251.2n Nr=2 Tt=148n type=silicon)
