* MUR460-M
* diode/silicon/mur460-m.mod

.model MUR460-M D(Is=289.1f Rs=33.23m Ikf=5.678m N=1 Xti=5 Eg=1.11 Cjo=70.72p M=.5733 Vj=.75 Fc=.5 Isr=6.495n Nr=2 Tt=123.3n)

* Iave: 4.0A
* Vpk: 600.0V
* mfg: Motorola
* type: silicon
