* MUR460-GI
* diode/silicon/mur460-gi.mod

.model MUR460-GI D(Is=149n Rs=0.0384 N=2 EG=1.285 XTI=0.5 BV=800 IBV=1e-05 Cjo=126.4p Vj=1.34 M=0.52 TT=44.4n)

* Iave: 4.0A
* Vpk: 600.0V
* mfg: GI
* type: silicon
