* MURS160
* diode/silicon/murs160.mod

.MODEL MURS160 D ( IS=17.1n RS=20.6m BV=600 IBV=2.00u CJO=45.0p M=0.333 N=1.73 TT=72.0n )

* Vpk: 600V
* Iave: 1.00A
* mfg: DiodesInc
* type: silicon
