* UF4007
* diode/silicon/uf4007.mod

.MODEL UF4007 D N=3.97671 IS=3.28772u RS=0.149734 EG=1.11 XTI=3 CJO=2.92655E-011 VJ=0.851862 M=0.334552 FC=0.5 TT=1.84973E-007 BV=1000 IBV=0.2

* Iave: 1
* Vpk: 1000
* type: silicon
