* X100SG
* diode/silicon/x100sg.mod

.model X100SG D( IS=0.25U N=28 RS=0.8 TT=3000N CJ0=1.5P VJ=19.79 M=0.5 EG=1.11 XTI=3 FC=0.5 BV=12000 IBV=100U)

* Iave: 0.1
* Vpk: 10000
* mfg: VMI
* type: Silicon
