* X150FF3
* diode/silicon/x150ff3.mod

.model X150FF3 D( IS=0.25U N=90 RS=8 TT=30N CJ0=0.98P VJ=16.83 M=0.5 EG=1.11 XTI=3 FC=0.5 BV=17000 IBV=100U Iave=0.05 Vpk=15000 mfg=VMI type=Silicon)
