* X150UFG
* diode/silicon/x150ufg.mod

.model X150UFG D( IS=0.25U N=46 RS=8 TT=100N CJ0=1.23P VJ=19.17 M=0.5 EG=1.11 XTI=3 FC=0.5 BV=18000 IBV=100U Iave=0.05 Vpk=15000 mfg=VMI type=Silicon)
