* X150SG
* diode/silicon/x150sg.mod

.model X150SG D( IS=0.25U N=39.5 RS=0.9 TT=3000N CJ0=1.19P VJ=26.18 M=0.5 EG=1.11 XTI=3 FC=0.5 BV=17000 IBV=100U)

* Iave: 0.05
* Vpk: 15000
* mfg: VMI
* type: Silicon
