* X200UFG
* diode/silicon/x200ufg.mod

.model X200UFG D( IS=0.25U N=62 RS=9 TT=100N CJ0=1.01P VJ=23.44 M=0.5 EG=1.11 XTI=3 FC=0.5 BV=22000 IBV=100U Iave=0.025 Vpk=20000 mfg=VMI type=Silicon)
