* X20FF3
* diode/silicon/x20ff3.mod

.model X20FF3 D( IS=0.25U N=9 RS=0.8 TT=30N CJ0=8.43P VJ=3.11 M=0.5 EG=1.11 XTI=3 FC=0.5 BV=2200 IBV=100U)

* Iave: 0.42
* Vpk: 2000
* mfg: VMI
* type: Silicon
