* X25SG
* diode/silicon/x25sg.mod

.model X25SG D( IS=0.25U N=9 RS=0.3 TT=3000N CJ0=6.5P VJ=4.25 M=0.5 EG=1.11 XTI=3 FC=0.5 BV=3600 IBV=100U)

* Iave: 0.25
* Vpk: 2500
* mfg: VMI
* type: Silicon
