* X50FF3
* diode/silicon/x50ff3.mod

.model X50FF3 D( IS=0.25U N=38 RS=2.2 TT=30N CJ0=3.1P VJ=8.66 M=0.5 EG=1.11 XTI=3 FC=0.5 BV=6000 IBV=100U)

* Iave: 0.15
* Vpk: 5000
* mfg: VMI
* type: Silicon
