* X50SG
* diode/silicon/x50sg.mod

.model X50SG D( IS=0.25U N=14.5 RS=1.4 TT=3000N CJ0=3.87P VJ=6.41 M=0.5 EG=1.11 XTI=3 FC=0.5 BV=6000 IBV=100U)

* Iave: 0.15
* Vpk: 5000
* mfg: VMI
* type: Silicon
