* Z100FF3
* diode/silicon/z100ff3.mod

.model Z100FF3 D( IS=0.5U N=70 RS=2.6 TT=30N CJ0=8.49P VJ=20.3 M=0.5 EG=1.11 XTI=3 FC=0.5 BV=12000 IBV=100U Iave=0.18 Vpk=10000 mfg=VMI type=Silicon)
