* Z100SG
* diode/silicon/z100sg.mod

.model Z100SG D( IS=0.5U N=26 RS=0.005 TT=3000N CJ0=10.41P VJ=13.55 M=0.5 EG=1.11 XTI=3 FC=0.5 BV=12000 IBV=100U)

* Iave: 0.5
* Vpk: 10000
* mfg: VMI
* type: Silicon
