* Z100UF
* diode/silicon/z100uf.mod

.model Z100UF D( IS=0.5U N=35 RS=0.25 TT=100N CJ0=9.75P VJ=7.77 M=0.5 EG=1.11 XTI=3 FC=0.5 BV=12000 IBV=100U)

* Iave: 0.4
* Vpk: 10000
* mfg: VMI
* type: Silicon
