* Z10FF3
* diode/silicon/z10ff3.mod

.model Z10FF3 D( IS=0.5U N=7.6 RS=0.5 TT=30N CJ0=74.77P VJ=1.53 M=0.5 EG=1.11 XTI=3 FC=0.5 BV=1500 IBV=100U)

* Iave: 1.2
* Vpk: 1000
* mfg: VMI
* type: Silicon
