* Z10FF5
* diode/silicon/z10ff5.mod

.model Z10FF5 D( IS=0.5U N=4 RS=0.13 TT=50N CJ0=260.2P VJ=0.35 M=0.5 EG=1.11 XTI=3 FC=0.5 BV=1100 IBV=100U Iave=2 Vpk=1000 mfg=VMI type=Silicon)
