* Z150UFG
* diode/silicon/z150ufg.mod

.model Z150UFG D( IS=0.5U N=52 RS=1.5 TT=100N CJ0=5.99P VJ=21.33 M=0.5 EG=1.11 XTI=3 FC=0.5 BV=18000 IBV=100U)

* Iave: 0.3
* Vpk: 15000
* mfg: VMI
* type: Silicon
