* Z20FF3
* diode/silicon/z20ff3.mod

.model Z20FF3 D( IS=0.5U N=10 RS=0.36 TT=30N CJ0=57.79P VJ=2.16 M=0.5 EG=1.11 XTI=3 FC=0.5 BV=2200 IBV=100U Iave=1 Vpk=2000 mfg=VMI type=Silicon)
