* Z25SG
* diode/silicon/z25sg.mod

.model Z25SG D( IS=0.5U N=8.6 RS=0.005 TT=3000N CJ0=33.69P VJ=4.47 M=0.5 EG=1.11 XTI=3 FC=0.5 BV=3600 IBV=100U Iave=1.5 Vpk=2500 mfg=VMI type=Silicon)
