* Z25UF
* diode/silicon/z25uf.mod

.model Z25UF D( IS=0.5U N=11 RS=0.12 TT=100N CJ0=29.26P VJ=2.53 M=0.5 EG=1.11 XTI=3 FC=0.5 BV=3600 IBV=100U)

* Iave: 1
* Vpk: 2500
* mfg: VMI
* type: Silicon
