* Z50FF5
* diode/silicon/z50ff5.mod

.model Z50FF5 D( IS=0.5U N=22.3 RS=0.7 TT=50N CJ0=22.76P VJ=6.41 M=0.5 EG=1.11 XTI=3 FC=0.5 BV=6000 IBV=100U Iave=0.36 Vpk=5000 mfg=VMI type=Silicon)
