* Z50FF3
* diode/silicon/z50ff3.mod

.model Z50FF3 D( IS=0.5U N=35 RS=1.5 TT=30N CJ0=18.8P VJ=8.7 M=0.5 EG=1.11 XTI=3 FC=0.5 BV=6000 IBV=100U)

* Iave: 0.36
* Vpk: 5000
* mfg: VMI
* type: Silicon
