* Z50SG
* diode/silicon/z50sg.mod

.model Z50SG D( IS=0.5U N=13.2 RS=0.005 TT=3000N CJ0=20.55P VJ=8.09 M=0.5 EG=1.11 XTI=3 FC=0.5 BV=6000 IBV=100U)

* Iave: 1
* Vpk: 5000
* mfg: VMI
* type: Silicon
