* 2N3370
* jfet/njf/2n3370.mod

.MODEL 2N3370 NJF(VTO=-0.65 BETA=766.8u BETATCE=-0.5 LAMBDA=9m RD=1 RS=1 CGS=2.916p CGD=2.8p PB=0.5 IS=114.5f XTI=3 AF=1 FC=0.5 N=1 NR=2)

* MFG: NSC
