* 2N3459
* jfet/njf/2n3459.mod

.MODEL 2N3459 NJF(VTO=-1.4 BETA=1.265m BETATCE=-0.5 LAMBDA=4m RD=1 RS=1 CGS=2.916p CGD=2.8p PB=0.5 IS=114.5f XTI=3 AF=1 FC=0.5 N=1 NR=2 MFG=NSC)
