* 2N3458
* jfet/njf/2n3458.mod

.MODEL 2N3458 NJF(VTO=-3.05 BETA=700u BETATCE=-0.5 LAMBDA=6m RD=1 RS=1 CGS=2.916p CGD=2.8p PB=0.5 IS=114.5f XTI=3 AF=1 FC=0.5 N=1 NR=2 MFG=NSC)
