* 2N3686
* jfet/njf/2n3686.mod

.MODEL 2N3686 NJF(VTO=-0.957 BETA=723.7u BETATCE=-0.5 LAMBDA=2.333m RD=1 RS=1 CGS=2.083p CGD=2p PB=0.5 IS=114.5f XTI=3 AF=1 FC=0.5 N=1 NR=2)

* MFG: NSC
