* 2N3684
* jfet/njf/2n3684.mod

.MODEL 2N3684 NJF(VTO=-3.18 BETA=348.1u BETATCE=-0.5 LAMBDA=11.67m RD=1 RS=1 CGS=2.083p CGD=2p PB=0.5 IS=114.5f XTI=3 AF=1 FC=0.5 N=1 NR=2 MFG=NSC)
