* 2N3687
* jfet/njf/2n3687.mod

.MODEL 2N3687 NJF(VTO=-0.5102 BETA=840u BETATCE=-0.5 LAMBDA=1.167m RD=1 RS=1 CGS=2.083p CGD=2p PB=0.5 IS=114.5f XTI=3 AF=1 FC=0.5 N=1 NR=2 MFG=NSC)
