* 2N3685
* jfet/njf/2n3685.mod

.MODEL 2N3685 NJF(VTO=-1.691 BETA=543.4u BETATCE=-0.5 LAMBDA=5.833m RD=1 RS=1 CGS=2.083p CGD=2p PB=0.5 IS=114.5f XTI=3 AF=1 FC=0.5 N=1 NR=2 MFG=NSC)
