* 2N3822
* jfet/njf/2n3822.mod

.MODEL 2N3822 NJF(VTO=-1.962 BETA=1.1m BETATCE=-0.5 LAMBDA=4.09m RD=1 RS=1 CGS=4.627p CGD=4p PB=0.5 IS=181.3f XTI=3 AF=1 FC=0.5 N=1 NR=2 MFG=NSC)
