* 2N3823
* jfet/njf/2n3823.mod

.MODEL 2N3823 NJF(VTO=-3.3 BETA=1.17m BETATCE=-0.5 LAMBDA=4m RD=1 RS=1 CGS=2.414p CGD=1.6p PB=1 IS=33.57f XTI=3 AF=1 FC=0.5 N=1 NR=2)

* MFG: NSC
