* 2N3921
* jfet/njf/2n3921.mod

.MODEL 2N3921 NJF(VTO=-1.799 BETA=1.57m BETATCE=-0.5 LAMBDA=4m RD=1 RS=1 CGS=4.4p CGD=8.8p PB=1 IS=24.55f XTI=3 AF=1 FC=0.5 N=1 NR=2 MFG=NSC)
