* 2N3971
* jfet/njf/2n3971.mod

.MODEL 2N3971 NJF(VTO=-2.598 BETA=6.313m BETATCE=-0.5 LAMBDA=13m RD=1 RS=1 CGS=9.31p CGD=10.48p PB=1 IS=205.2f XTI=3 AF=1 FC=0.5 N=1 NR=2)

* MFG: NSC
