* 2N3970
* jfet/njf/2n3970.mod

.MODEL 2N3970 NJF(VTO=-4.514 BETA=4.032m BETATCE=-0.5 LAMBDA=23m RD=1 RS=1 CGS=9.31p CGD=10.48p PB=1 IS=205.2f XTI=3 AF=1 FC=0.5 N=1 NR=2 MFG=NSC)
