* 2N3972
* jfet/njf/2n3972.mod

.MODEL 2N3972 NJF(VTO=-1.403 BETA=9.109m BETATCE=-0.5 LAMBDA=6m RD=1 RS=1 CGS=9.31p CGD=10.48p PB=1 IS=205.2f XTI=3 AF=1 FC=0.5 N=1 NR=2)

* MFG: NSC
