* 2N3967
* jfet/njf/2n3967.mod

.MODEL 2N3967 NJF(VTO=-2.49 BETA=754.7u BETATCE=-0.5 LAMBDA=3.667m RD=1 RS=1 CGS=3.742p CGD=4p PB=0.5 IS=181.3f XTI=3 AF=1 FC=0.5 N=1 NR=2)

* MFG: NSC
