* 2N3954
* jfet/njf/2n3954.mod

.MODEL 2N3954 NJF(VTO=-2.033 BETA=768.3u BETATCE=-0.5 LAMBDA=4.25m RD=1 RS=1 CGS=0.86p CGD=1.71p PB=1 IS=24.55f XTI=3 AF=1 FC=0.5 N=1 NR=2)

* MFG: NSC
