* 2N4091
* jfet/njf/2n4091.mod

.MODEL 2N4091 NJF(VTO=-8.0337 BETA=1.56450m BETATCE=-0.5 LAMBDA=10m RD=0.825115 RS=0.825115 CGS=8.75p CGD=13.75p PB=0.772344 IS=0.65462f XTI=3 AF=1 FC=0.5 N=1 NR=2)

* MFG: PHILIPS
