* 2N4092
* jfet/njf/2n4092.mod

.MODEL 2N4092 NJF(VTO=-2.2088 BETA=4.22567m BETATCE=-0.5 LAMBDA=6.40354E-2 RD=1.14866 RS=1.14866 CGS=8.25p CGD=8.25p PB=7.55484E-1 IS=4.90805E-16 XTI=3 AF=1 FC=0.5 N=1 NR=2 MFG=PHILIPS)
