* 2N4093
* jfet/njf/2n4093.mod

.MODEL 2N4093 NJF(VTO=-1.3550 BETA=6.94457m BETATCE=-0.5 LAMBDA=3.97876E-2 RD=3.51442 RS=3.51442 CGS=8p CGD=8.3p PB=7.27722E-1 IS=6.91657E-16 XTI=3 AF=1 FC=0.5 N=1 NR=2 MFG=PHILIPS)
