* 2N4117A
* jfet/njf/2n4117a.mod

.MODEL 2N4117A NJF(VTO=-1.1 BETA=49.01u BETATCE=-0.5 LAMBDA=13m RD=1 RS=1 CGS=4.93p CGD=3.94p PB=1 IS=5.261f XTI=3 AF=1 FC=0.5 N=1 NR=2)

* MFG: NSC
