* 2N4118
* jfet/njf/2n4118.mod

.model 2N4118 NJF(Beta=52.58u Betatce=-.5 Rd=1 Rs=1 Lambda=15m Vto=-1.732 Vtotc=-2.5m Is=5.261f Isr=51.03f N=1 Nr=2 Xti=3 Alpha=797.9n Vk=90.45 Cgd=3.94p M=.4335 Pb=1 Fc=.5 Cgs=4.93p Kf=76.7E-18 Af=1 mfg=Fairchild)
