* 2N4221
* jfet/njf/2n4221.mod

.MODEL 2N4221 NJF(VTO=-2.139 BETA=726.3u BETATCE=-0.5 LAMBDA=4.15m RD=1 RS=1 CGS=4.627p CGD=4p PB=0.5 IS=181.3f XTI=3 AF=1 FC=0.5 N=1 NR=2)

* MFG: NSC
