* 2N4222
* jfet/njf/2n4222.mod

.MODEL 2N4222 NJF(VTO=-4.1 BETA=436.4u BETATCE=-0.5 LAMBDA=5.333m RD=1 RS=1 CGS=4.627p CGD=4p PB=0.5 IS=181.3f XTI=3 AF=1 FC=0.5 N=1 NR=2 MFG=NSC)
