* 2N4223
* jfet/njf/2n4223.mod

.MODEL 2N4223 NJF(VTO=-3.05 BETA=1.04m BETATCE=-0.5 LAMBDA=5.5m RD=1 RS=1 CGS=2.414p CGD=1.6p PB=1 IS=33.57f XTI=3 AF=1 FC=0.5 N=1 NR=2)

* MFG: NSC
