* 2N4220
* jfet/njf/2n4220.mod

.MODEL 2N4220 NJF(VTO=-1.195 BETA=819.8u BETATCE=-0.5 LAMBDA=3.266m RD=1 RS=1 CGS=4.627p CGD=4p PB=0.5 IS=181.3f XTI=3 AF=1 FC=0.5 N=1 NR=2)

* MFG: NSC
