* 2N4391
* jfet/njf/2n4391.mod

.MODEL 2N4391 NJF(VTO=-8.0337 BETA=1.56450m BETATCE=-0.5 LAMBDA=1.00000E-2 RD=8.25115E-1 RS=8.25115E-1 CGS=8.25000p CGD=1.32500E-11 PB=7.72344E-1 IS=6.54620E-16 XTI=3 AF=1 FC=0.5 N=1 NR=2 MFG=PHILIPS)
