* 2N4340
* jfet/njf/2n4340.mod

.MODEL 2N4340 NJF(VTO=-2.001 BETA=471u BETATCE=-0.5 LAMBDA=7m RD=1 RS=1 CGS=2.916p CGD=2.8p PB=0.5 IS=114.5f XTI=3 AF=1 FC=0.5 N=1 NR=2 MFG=NSC)
