* 2N4339
* jfet/njf/2n4339.mod

.MODEL 2N4339 NJF(VTO=-1.218 BETA=555.8u BETATCE=-0.5 LAMBDA=3.5m RD=1 RS=1 CGS=2.916p CGD=2.8p PB=0.5 IS=114.5f XTI=3 AF=1 FC=0.5 N=1 NR=2 MFG=NSC)
