* 2N4338
* jfet/njf/2n4338.mod

.model 2N4338 NJF(Beta=781u Betatce=-.5 Rd=1 Rs=1 Lambda=1.167m Vto=-.6606 Vtotc=-2.5m Is=114.5f Isr=1.091p N=1 Nr=2 Xti=3 Alpha=506.8u Vk=251.7 Cgd=2.8p M=.2271 Pb=.5 Fc=.5 Cgs=2.916p Kf=2.918E-18 Af=1)

* mfg: Fairchild
