* 2N4859A
* jfet/njf/2n4859a.mod

.MODEL 2N4859A NJF(VTO=-5.431 BETA=3.084m BETATCE=-0.5 LAMBDA=12m RD=1 RS=1 CGS=5.07p CGD=5.71p PB=1 IS=205.2f XTI=3 AF=1 FC=0.5 N=1 NR=2 MFG=NSC)
