* 2N4857A
* jfet/njf/2n4857a.mod

.MODEL 2N4857A NJF(VTO=-3.05 BETA=6.313m BETATCE=-0.5 LAMBDA=9.5m RD=1 RS=1 CGS=4.74p CGD=5.34p PB=1 IS=205.2f XTI=3 AF=1 FC=0.5 N=1 NR=2 MFG=NSC)
