* 2N4858A
* jfet/njf/2n4858a.mod

.MODEL 2N4858A NJF(VTO=-2.387 BETA=7.646m BETATCE=-0.5 LAMBDA=8m RD=1 RS=1 CGS=4.74p CGD=5.34p PB=1 IS=205.2f XTI=3 AF=1 FC=0.5 N=1 NR=2)

* MFG: NSC
