* 2N4861A
* jfet/njf/2n4861a.mod

.MODEL 2N4861A NJF(VTO=-2.308 BETA=8.362m BETATCE=-0.5 LAMBDA=8m RD=1 RS=1 CGS=4.74p CGD=5.34p PB=1 IS=205.2f XTI=3 AF=1 FC=0.5 N=1 NR=2)

* MFG: NSC
