* 2N5045
* jfet/njf/2n5045.mod

.MODEL 2N5045 NJF(VTO=-1.95 BETA=1.271m BETATCE=-0.5 LAMBDA=3.5m RD=1 RS=1 CGS=2.85p CGD=5.71p PB=1 IS=24.55f XTI=3 AF=1 FC=0.5 N=1 NR=2 MFG=NSC)
