* 2N5196
* jfet/njf/2n5196.mod

.MODEL 2N5196 NJF(VTO=-2.257 BETA=812.9u BETATCE=-0.5 LAMBDA=5m RD=1 RS=1 CGS=1.64p CGD=3.28p PB=1 IS=24.55f XTI=3 AF=1 FC=0.5 N=1 NR=2)

* MFG: NSC
