* 2N5103
* jfet/njf/2n5103.mod

.MODEL 2N5103 NJF(VTO=-1.85 BETA=1.426m BETATCE=-0.5 LAMBDA=3.167m RD=1 RS=1 CGS=2.414p CGD=1.6p PB=1 IS=33.57f XTI=3 AF=1 FC=0.5 N=1 NR=2 MFG=NSC)
