* 2N5398
* jfet/njf/2n5398.mod

.MODEL 2N5398 NJF(VTO=-3.323 BETA=1.242m BETATCE=-0.5 LAMBDA=8m RD=1 RS=1 CGS=3.383p CGD=3p PB=1 IS=101.9f XTI=3 AF=1 FC=0.5 N=1 NR=2)

* MFG: NSC
