* 2N5358
* jfet/njf/2n5358.mod

.MODEL 2N5358 NJF(VTO=-0.8005 BETA=1.064m BETATCE=-0.5 LAMBDA=2.571m RD=1 RS=1 CGS=4.627p CGD=4p PB=0.5 IS=181.3f XTI=3 AF=1 FC=0.5 N=1 NR=2 MFG=NSC)
