* 2N5397
* jfet/njf/2n5397.mod

.MODEL 2N5397 NJF(VTO=-3.679 BETA=1.242m BETATCE=-0.5 LAMBDA=8m RD=1 RS=1 CGS=3.598p CGD=2.6p PB=1 IS=101.9f XTI=3 AF=1 FC=0.5 N=1 NR=2 MFG=NSC)
