* 2N5433
* jfet/njf/2n5433.mod

.MODEL 2N5433 NJF(VTO=-4.16 BETA=12.42m BETATCE=-0.5 LAMBDA=40m RD=1 RS=1 CGS=35.6p CGD=35.6p PB=1 IS=533.7f XTI=3 AF=1 FC=0.5 N=1 NR=2)

* MFG: NSC
