* 2N5545
* jfet/njf/2n5545.mod

.MODEL 2N5545 NJF(VTO=-2 BETA=1.271m BETATCE=-0.5 LAMBDA=4m RD=1 RS=1 CGS=1.64p CGD=3.28p PB=1 IS=24.55f XTI=3 AF=1 FC=0.5 N=1 NR=2)

* MFG: NSC
