* 2N5558
* jfet/njf/2n5558.mod

.MODEL 2N5558 NJF(VTO=-2.91 BETA=864u BETATCE=-0.5 LAMBDA=6.75m RD=1 RS=1 CGS=2.414p CGD=1.6p PB=1 IS=33.57f XTI=3 AF=1 FC=0.5 N=1 NR=2 MFG=NSC)
