* 2N5565
* jfet/njf/2n5565.mod

.MODEL 2N5565 NJF(VTO=-1.447 BETA=9.109m BETATCE=-0.5 LAMBDA=7.5m RD=1 RS=1 CGS=9.76p CGD=8.67p PB=1 IS=94.42f XTI=3 AF=1 FC=0.5 N=1 NR=2)

* MFG: NSC
