* 2N5556
* jfet/njf/2n5556.mod

.MODEL 2N5556 NJF(VTO=-0.875 BETA=2.194m BETATCE=-0.5 LAMBDA=3.8m RD=1 RS=1 CGS=2.414p CGD=1.6p PB=1 IS=33.57f XTI=3 AF=1 FC=0.5 N=1 NR=2)

* MFG: NSC
