* 2N5902
* jfet/njf/2n5902.mod

.MODEL 2N5902 NJF(VTO=-1.652 BETA=120u BETATCE=-0.5 LAMBDA=900u RD=1 RS=1 CGS=1.23p CGD=1.23p PB=1 IS=16.33f XTI=3 AF=1 FC=0.5 N=1 NR=2)

* MFG: NSC
