* 2SK118
* jfet/njf/2sk118.mod

.model 2SK118 NJF(Beta=900u Rs=36 Rd=36 Betatce=-.5 Lambda=331u Vto=-2.7 Vtotc=-2.5m Cgd=5.7p M=.45 Pb=2 Fc=.5 Cgs=6.6p Isr=113p Nr=2 Is=11.3p N=1 Xti=3 Alpha=10u Vk=100 Kf=1e-18 Af=1)
