* BC264B
* jfet/njf/bc264b.mod

.MODEL BC264B NJF(VTO=-1.7564 BETA=1.18820m BETATCE=-0.5 LAMBDA=1.87821E-2 RD=9.84550 RS=9.84550 CGS=2.15000p CGD=2.20000p PB=7.73534E-1 IS=3.20636E-16 XTI=3 AF=1 FC=0.5 N=1 NR=2)

* MFG: PHILIPS
