* BF245C
* jfet/njf/bf245c.mod

.MODEL BF245C NJF(VTO=-5.0014 BETA=5.43157E-4 BETATCE=-0.5 LAMBDA=2.71505E-2 RD=1.20869E1 RS=1.20869E1 CGS=2.00000p CGD=2.00000p PB=1.24659 IS=3.64346E-16 XTI=3 AF=1 FC=0.5 N=1 NR=2)

* MFG: PHILIPS
