* BF256B
* jfet/njf/bf256b.mod

.MODEL BF256B NJF(VTO=-2.3085 BETA=1.09045m BETATCE=-0.5 LAMBDA=2.31754E-2 RD=7.77648 RS=7.77648 CGS=2.00000p CGD=2.20000p PB=9.91494E-1 IS=2.59121E-16 XTI=3 AF=1 FC=0.5 N=1 NR=2)

* MFG: PHILIPS
