* BF256C
* jfet/njf/bf256c.mod

.MODEL BF256C NJF(Beta=1.4m Betatce=-500m Rd=1 Rs=1 Lambda=4.6m Vto=-3.1 Vtotc=-2.5m Is=33.57f Isr=322.4f N=1 Nr=2 Xti=3 Alpha=311.7 Vk=243.6 Cgd=2.132p M=362.2m Pb=1 Fc=500m Cgs=2.104p Kf=2.306e-002f Af=1)
