* BF256A
* jfet/njf/bf256a.mod

.MODEL BF256A NJF(VTO=-2.1333 BETA=1.06491m BETATCE=-0.5 LAMBDA=1.68673E-2 RD=1.41231E1 RS=1.41231E1 CGS=2.10000p CGD=2.30000p PB=7.73895E-1 IS=3.50865E-16 XTI=3 AF=1 FC=0.5 N=1 NR=2)

* MFG: PHILIPS
