* BF410D
* jfet/njf/bf410d.mod

.MODEL BF410D NJF(VTO=-3.1715 BETA=1.22441m BETATCE=-0.5 LAMBDA=1.98434E-2 RD=2.61448 RS=2.61448 CGS=5.40000p CGD=4.08000p PB=8.59053E-1 IS=3.88189E-14 XTI=3 AF=1 FC=0.5 N=1 NR=2 MFG=PHILIPS)
