* BF410A
* jfet/njf/bf410a.mod

.MODEL BF410A NJF(VTO=-8.8094E-1 BETA=2.01845m BETATCE=-0.5 LAMBDA=1.50475E-2 RD=3.57223 RS=3.57223 CGS=2.80000p CGD=4.27000p PB=6.18391E-1 IS=1.05515E-13 XTI=3 AF=1 FC=0.5 N=1 NR=2)

* MFG: PHILIPS
