* BF410B
* jfet/njf/bf410b.mod

.MODEL BF410B NJF(VTO=-1.9058 BETA=1.54719m BETATCE=-0.5 LAMBDA=1.72995E-2 RD=3.06677 RS=3.06677 CGS=4.18000p CGD=2.37000p PB=7.16850E-1 IS=7.02360E-14 XTI=3 AF=1 FC=0.5 N=1 NR=2)

* MFG: PHILIPS
