* BF410C
* jfet/njf/bf410c.mod

.MODEL BF410C NJF(VTO=-2.3973 BETA=1.31099m BETATCE=-0.5 LAMBDA=1.70958E-2 RD=3.03493 RS=3.03493 CGS=3.42000p CGD=2.68000p PB=8.25674E-1 IS=5.66111E-14 XTI=3 AF=1 FC=0.5 N=1 NR=2)

* MFG: PHILIPS
