* BF545A-PLP
* jfet/njf/bf545a-plp.mod

.model BF545A/PLP NJF( VTO=-1.7372 BETA=1.16621E-003 LAMBDA=1.77211E-002 RD=9.01678E+000 RS=9.01678 IS=2.91797E-016 CGS=2.2p CGD=2.2p PB=7.80988E-001 FC=0.5 MFG=PHILIPS)
