* BF545B-PLP
* jfet/njf/bf545b-plp.mod

.model BF545B/PLP NJF( VTO=-2.3085 BETA=1.09045E-003 LAMBDA=2.31754E-002 RD=7.77648E+000 RS=7.77648 IS=2.59121E-016 CGS=2p CGD=2.2p PB=9.91494E-001 FC=0.5)

* MFG: PHILIPS
