* BF545C-PLP
* jfet/njf/bf545c-plp.mod

.model BF545C/PLP NJF( VTO=-5.0014 BETA=5.43157E-004 LAMBDA=2.71505E-002 RD=1.20869E+001 RS=1.20869E+001 IS=3.64346E-016 CGS=2p CGD=2p PB=1.24659E+000 FC=0.5 MFG=PHILIPS)
