* BF556B
* jfet/njf/bf556b.mod

.model BF556B NJF(NJF VTO=-2.3085 BETA=1.09045m LAMBDA=2.31754E-002 RD=7.77648 RS=7.77648 IS=2.59121E-016 CGS=2p CGD=2.2p PB=0.991494 FC=0.5 mfg=NXP)
