* BF851A
* jfet/njf/bf851a.mod

.MODEL BF851A NJF(VTO=-0.5111 BETA=0.01519 BETATCE=-0.5 LAMBDA=0.03593 RD=4.164 RS=4.164 CGS=6.299p CGD=6.299p PB=0.6917 IS=4.102E-16 XTI=3 AF=1 FC=0.5 N=1 NR=2)

* MFG: PHILIPS
