* BF851B
* jfet/njf/bf851b.mod

.MODEL BF851B NJF(VTO=-0.6391 BETA=0.01393 BETATCE=-0.5 LAMBDA=0.04702 RD=3.577 RS=3.577 CGS=6.025p CGD=6.025p PB=0.7072 IS=3.769E-16 XTI=3 AF=1 FC=0.5 N=1 NR=2)

* MFG: PHILIPS
