* BF862
* jfet/njf/bf862.mod

.model bf862 njf(beta=47.800m rd=.8 rs=7.5 lambda=37.3m vto=-.57093 is=424.6p cgd=7.4p pb=.5 fc=.5 cgs=8.29p kf=87.5e-18 af=1 alpha=-1m nr=2 isr=2.995p vtotc=-2m betatce=-.5 xti=3 vk=59.97 m=.6015

* MFG: PHILIPS
