* BF861C
* jfet/njf/bf861c.mod

.MODEL BF861C NJF(VTO=-1.145 BETA=0.01522 BETATCE=-0.5 LAMBDA=0.04494 RD=15.2 RS=15.2 CGS=6.581p CGD=6.581p PB=0.7395 IS=4.157E-16 XTI=3 AF=1 FC=0.5 N=1 NR=2 MFG=PHILIPS)
