* BFR31
* jfet/njf/bfr31.mod

.MODEL BFR31 NJF(VTO=-1.0686 BETA=1.73071m BETATCE=-0.5 LAMBDA=2.29157E-2 RD=9.05115 RS=9.05115 CGS=2.20000p CGD=2.20000p PB=9.78591E-1 IS=1.70538E-16 XTI=3 AF=1 FC=0.5 N=1 NR=2)

* MFG: PHILIPS
