* BFT46
* jfet/njf/bft46.mod

.MODEL BFT46 NJF(VTO=-6.4188E-1 BETA=1.86172m BETATCE=-0.5 LAMBDA=2.16604E-2 RD=9.23044 RS=9.23044 CGS=2.20000p CGD=2.20000p PB=8.27713E-1 IS=1.68833E-16 XTI=3 AF=1 FC=0.5 N=1 NR=2 MFG=PHILIPS)
