* BFU308
* jfet/njf/bfu308.mod

.MODEL BFU308 NJF(VTO=-3.2130 BETA=3.33257m BETATCE=-0.5 LAMBDA=2.34410E-2 RD=1.50212 RS=1.50212 CGS=7.60000p CGD=6.70000p PB=7.76379E-1 IS=3.82746E-16 XTI=3 AF=1 FC=0.5 N=1 NR=2)

* MFG: PHILIPS
