* BFU310
* jfet/njf/bfu310.mod

.MODEL BFU310 NJF(VTO=-3.8366 BETA=2.88371m BETATCE=-0.5 LAMBDA=2.00998E-2 RD=1.53610 RS=1.53610 CGS=7.90000p CGD=6.70000p PB=7.58274E-1 IS=4.18900E-16 XTI=3 AF=1 FC=0.5 N=1 NR=2 MFG=PHILIPS)
