* BSR58
* jfet/njf/bsr58.mod

.MODEL BSR58 NJF(VTO=-2.4397 BETA=6.09357m BETATCE=-0.5 LAMBDA=5.26244E-2 RD=1.26608 RS=1.26608 CGS=1.05000E-11 CGD=1.10000E-11 PB=6.06848E-1 IS=9.89866E-16 XTI=3 AF=1 FC=0.5 N=1 NR=2)

* MFG: PHILIPS
