* BSR57
* jfet/njf/bsr57.mod

.MODEL BSR57 NJF(VTO=-3.1621 BETA=5.01519m BETATCE=-0.5 LAMBDA=2.40112E-2 RD=1.48485 RS=1.48485 CGS=1.05000E-11 CGD=1.40000E-11 PB=5.68050E-1 IS=9.11151E-16 XTI=3 AF=1 FC=0.5 N=1 NR=2)

* MFG: PHILIPS
