* BSR56
* jfet/njf/bsr56.mod

.MODEL BSR56 NJF(VTO=-5.3298 BETA=2.86527m BETATCE=-0.5 LAMBDA=6.19323E-2 RD=1.62278 RS=1.62278 CGS=1.05000E-11 CGD=1.30000E-11 PB=7.98217E-1 IS=1.18582f XTI=3 AF=1 FC=0.5 N=1 NR=2 MFG=PHILIPS)
