* BSV79
* jfet/njf/bsv79.mod

.MODEL BSV79 NJF(VTO=-5.3638 BETA=3.25000m BETATCE=-0.5 LAMBDA=2.00000E-2 RD=2.42642 RS=2.42642 CGS=1.10000E-11 CGD=1.30000E-11 PB=7.01712E-1 IS=2.17605f XTI=3 AF=1 FC=0.5 N=1 NR=2 MFG=PHILIPS)
