* DN5566
* jfet/njf/dn5566.mod

.MODEL DN5566 NJF(Beta=9m Betatce=-500m Rd=1 Rs=1 Lambda=7.5m Vto=-1.9 Vtotc=-2.5m Is=82.73f Isr=793f N=1 Nr=2 Xti=3 Alpha=15.64u Vk=147.8 Cgd=5.8p M=318.4m Pb=1 Fc=500m Cgs=11.9p Kf=0.5297f Af=1)
