* FN4119A
* jfet/njf/fn4119a.mod

.MODEL FN4119A NJF(Beta=22.16u Betatce=-500m Rd=1 Rs=1 Lambda=10m Vto=-4.5 Vtotc=-2.5m Is=4.477f Isr=43.76f N=1 Nr=2 Xti=3 Alpha=18.01m Vk=350.6 Cgd=4.49p M=435.9m Pb=1 Fc=500m Cgs=4.49p Kf=7.51e-003f Af=1)
