* FN4118
* jfet/njf/fn4118.mod

.MODEL FN4118 NJF(Beta=85.1u Betatce=-500m Rd=1 Rs=1 Lambda=7.5m Vto=-1.259 Vtotc=-2.5m Is=4.477f Isr=43.76f N=1 Nr=2 Xti=3 Alpha=18.01m Vk=350.6 Cgd=4.49p M=435.9m Pb=1 Fc=500m Cgs=4.49p Kf=5.22e-002f Af=1)
