* FN4118A
* jfet/njf/fn4118a.mod

.MODEL FN4118A NJF(Beta=95.1u Betatce=-500m Rd=1 Rs=1 Lambda=7.5m Vto=-1.299 Vtotc=-2.5m Is=4.477f Isr=43.76f N=1 Nr=2 Xti=3 Alpha=18.01m Vk=350.6 Cgd=4.49p M=435.9m Pb=1 Fc=500m Cgs=4.49p Kf=5.981e-002f Af=1)
