* FN4392
* jfet/njf/fn4392.mod

.MODEL FN4392 NJF(Beta=7.477m Betatce=-500m Rd=1 Rs=1 Lambda=10m Vto=-3.15 Vtotc=-2.5m Is=82.73f Isr=793f N=1 Nr=2 Xti=3 Alpha=15.64u Vk=147.8 Cgd=5.8p M=318.4m Pb=1 Fc=500m Cgs=11.9p Kf=0.44f Af=1)
