* IF3602
* jfet/njf/if3602.mod

.MODEL if3602 njf Beta=260m LAMBDA=1m RD=40m RS=40m IS=0.05n CGD=1200p m=0.5 CGS=600p PB=0.75 KF=1E-18 b=1.8 VTO=-1.5
