* J106
* jfet/njf/j106.mod

.MODEL J106 NJF(Beta=12m Betatce=-500m Rd=1 Rs=1 Lambda=40m Vto=-3.95 Vtotc=-2.5m Is=304.4f Isr=2.995p N=1 Nr=2 Xti=3 Alpha=699.7n Vk=59.97 Cgd=140p M=601.5m Pb=500m Fc=500m Cgs=142.3p Kf=0.117f Af=1)
