* J108
* jfet/njf/j108.mod

.MODEL J108 NJF(VTO=-5.4528 BETA=1.11439E-2 BETATCE=-0.5 LAMBDA=1.00000E-1 RD=3.11414 RS=3.11414 CGS=2.75000E-11 CGD=4.30000E-11 PB=5.90984E-1 IS=6.90136f XTI=3 AF=1 FC=0.5 N=1 NR=2 MFG=PHILIPS)
