* J109
* jfet/njf/j109.mod

.MODEL J109 NJF(VTO=-5.5556 BETA=7.61416m BETATCE=-0.5 LAMBDA=1.41466E-1 RD=7.11991E-1 RS=7.11991E-1 CGS=2.70000E-11 CGD=4.60000E-11 PB=5.77536E-1 IS=1.77087f XTI=3 AF=1 FC=0.5 N=1 NR=2 MFG=PHILIPS)
