* J110
* jfet/njf/j110.mod

.MODEL J110 NJF(VTO=-2.7780 BETA=1.20784E-2 BETATCE=-0.5 LAMBDA=1.74601E-1 RD=1.03157 RS=1.03157 CGS=2.80000E-11 CGD=3.80000E-11 PB=4.64070E-1 IS=4.42809f XTI=3 AF=1 FC=0.5 N=1 NR=2)

* MFG: PHILIPS
