* J112
* jfet/njf/j112.mod

.MODEL J112 NJF(VTO=-2.3303 BETA=5.97264m BETATCE=-0.5 LAMBDA=2.31986E-2 RD=2.29075 RS=2.29075 CGS=1.05000E-11 CGD=1.20000E-11 PB=6.09944E-1 IS=8.87988E-16 XTI=3 AF=1 FC=0.5 N=1 NR=2)

* MFG: PHILIPS
