* J114
* jfet/njf/j114.mod

.MODEL J114 NJF(Beta=910.9u Betatce=-500m Rd=1 Rs=1 Lambda=20m Vto=-4.86 Vtotc=-2.5m Is=101.9f Isr=977.5f N=1 Nr=2 Xti=3 Alpha=13.92u Vk=88.13 Cgd=4.545p M=344.8m Pb=1 Fc=500m Cgs=4.599p Kf=1.433e-002f Af=1)
