* J202
* jfet/njf/j202.mod

.MODEL J202 NJF(Beta=985.5u Betatce=-500m Rd=1 Rs=1 Lambda=7m Vto=-1.612 Vtotc=-2.5m Is=114.5f Isr=1.091p N=1 Nr=2 Xti=3 Alpha=506.8u Vk=251.7 Cgd=4.667p M=227.1m Pb=500m Fc=500m Cgs=2.992p Kf=0.3604f Af=1)
