* J203
* jfet/njf/j203.mod

.MODEL J203 NJF(Beta=304.5u Betatce=-500m Rd=1 Rs=1 Lambda=17m Vto=-5.369 Vtotc=-2.5m Is=114.5f Isr=1.091p N=1 Nr=2 Xti=3 Alpha=506.8u Vk=251.7 Cgd=4.667p M=227.1m Pb=500m Fc=500m Cgs=2.992p Kf=0.1034f Af=1)
