* J204
* jfet/njf/j204.mod

.MODEL J204 NJF(Beta=1.004m Betatce=-500m Rd=1 Rs=1 Lambda=3.333m Vto=-1.139 Vtotc=-2.5m Is=29.04f Isr=281.9f N=1 Nr=2 Xti=3 Alpha=698u Vk=270.4 Cgd=3.58p M=360.1m Pb=1 Fc=500m Cgs=5.4p Kf=0.165f Af=1)
