* J210
* jfet/njf/j210.mod

.MODEL J210 NJF(Beta=2.222m Betatce=-500m Rd=1 Rs=1 Lambda=8.8m Vto=-1.526 Vtotc=-2.5m Is=101.9f Isr=977.5f N=1 Nr=2 Xti=3 Alpha=13.92u Vk=88.13 Cgd=3.913p M=344.8m Pb=1 Fc=500m Cgs=3.496p Kf=0.8624f Af=1)
