* J211
* jfet/njf/j211.mod

.MODEL J211 NJF(Beta=1.808m Betatce=-500m Rd=1 Rs=1 Lambda=10m Vto=-2.9 Vtotc=-2.5m Is=101.9f Isr=977.5f N=1 Nr=2 Xti=3 Alpha=13.92u Vk=88.13 Cgd=3.913p M=344.8m Pb=1 Fc=500m Cgs=3.496p Kf=0.7015f Af=1)
