* J212
* jfet/njf/j212.mod

.MODEL J212 NJF(Beta=873.3u Betatce=-500m Rd=1 Rs=1 Lambda=16m Vto=-5.029 Vtotc=-2.5m Is=101.9f Isr=977.5f N=1 Nr=2 Xti=3 Alpha=13.92u Vk=88.13 Cgd=3.913p M=344.8m Pb=1 Fc=500m Cgs=3.496p Kf=0.3375f Af=1)
