* J230
* jfet/njf/j230.mod

.MODEL J230 NJF(Beta=642.1u Betatce=-500m Rd=1 Rs=1 Lambda=7.333m Vto=-1.718 Vtotc=-2.5m Is=29.04f Isr=281.9f N=1 Nr=2 Xti=3 Alpha=698u Vk=270.4 Cgd=2.59p M=360.1m Pb=1 Fc=500m Cgs=3.882p Kf=0.1601f Af=1)
