* J231
* jfet/njf/j231.mod

.MODEL J231 NJF(Beta=1.004m Betatce=-500m Rd=1 Rs=1 Lambda=8.667m Vto=-2.107 Vtotc=-2.5m Is=29.04f Isr=281.9f N=1 Nr=2 Xti=3 Alpha=698u Vk=270.4 Cgd=2.59p M=360.1m Pb=1 Fc=500m Cgs=3.882p Kf=0.2581f Af=1)
