* J232
* jfet/njf/j232.mod

.MODEL J232 NJF(Beta=1.509m Betatce=-500m Rd=1 Rs=1 Lambda=10m Vto=-2.3 Vtotc=-2.5m Is=29.04f Isr=281.9f N=1 Nr=2 Xti=3 Alpha=698u Vk=270.4 Cgd=2.59p M=360.1m Pb=1 Fc=500m Cgs=3.882p Kf=0.3963f Af=1)
