* J2N3966
* jfet/njf/j2n3966.mod

.MODEL J2N3966 NJF(Beta=650u Betatce=-500m Rd=1 Rs=1 Lambda=15m Vto=-4.876 Vtotc=-2.5m Is=33.57f Isr=322.4f N=1 Nr=2 Xti=3 Alpha=311.7 Vk=243.6 Cgd=1.6p M=362.2m Pb=1 Fc=500m Cgs=2.414p Kf=7.589e-003f Af=1)
