* J2N3370
* jfet/njf/j2n3370.mod

.MODEL J2N3370 NJF(Beta=766.8u Betatce=-500m Rd=1 Rs=1 Lambda=9m Vto=-650m Vtotc=-2.5m Is=114.5f Isr=1.091p N=1 Nr=2 Xti=3 Alpha=506.8u Vk=251.7 Cgd=2.8p M=227.1m Pb=500m Fc=500m Cgs=2.916p Kf=2.863e-003f Af=1)
