* J2N3369
* jfet/njf/j2n3369.mod

.MODEL J2N3369 NJF(Beta=336.2u Betatce=-500m Rd=1 Rs=1 Lambda=11m Vto=-2.07 Vtotc=-2.5m Is=114.5f Isr=1.091p N=1 Nr=2 Xti=3 Alpha=506.8u Vk=251.7 Cgd=2.8p M=227.1m Pb=500m Fc=500m Cgs=2.916p Kf=1.214e-003f Af=1)
