* J2N3968A
* jfet/njf/j2n3968a.mod

.MODEL J2N3968A NJF(Beta=1.125m Betatce=-500m Rd=1 Rs=1 Lambda=2.683m Vto=-1.376 Vtotc=-2.5m Is=181.3f Isr=1.747p N=1 Nr=2 Xti=3 Alpha=2.543u Vk=152.2 Cgd=4p M=311.4m Pb=500m Fc=500m Cgs=3.742p Kf=1.045e-002f Af=1)
