* J2N3821
* jfet/njf/j2n3821.mod

.MODEL J2N3821 NJF(Beta=1.517m Betatce=-500m Rd=1 Rs=1 Lambda=2.045m Vto=-846.7m Vtotc=-2.5m Is=181.3f Isr=1.747p N=1 Nr=2 Xti=3 Alpha=2.543u Vk=152.2 Cgd=4p M=311.4m Pb=500m Fc=500m Cgs=4.627p Kf=1.43e-002f Af=1)
