* J2N3967A
* jfet/njf/j2n3967a.mod

.MODEL J2N3967A NJF(Beta=754.7u Betatce=-500m Rd=1 Rs=1 Lambda=3.667m Vto=-2.49 Vtotc=-2.5m Is=181.3f Isr=1.747p N=1 Nr=2 Xti=3 Alpha=2.543u Vk=152.2 Cgd=4p M=311.4m Pb=500m Fc=500m Cgs=3.742p Kf=6.839e-003f Af=1)
