* J2N3684
* jfet/njf/j2n3684.mod

.MODEL J2N3684 NJF(Beta=348.1u Betatce=-500m Rd=1 Rs=1 Lambda=11.67m Vto=-3.18 Vtotc=-2.5m Is=114.5f Isr=1.091p N=1 Nr=2 Xti=3 Alpha=506.8u Vk=251.7 Cgd=2p M=227.1m Pb=500m Fc=500m Cgs=2.083p Kf=1.259e-003f Af=1)
