* J2N3685
* jfet/njf/j2n3685.mod

.MODEL J2N3685 NJF(Beta=543.4u Betatce=-500m Rd=1 Rs=1 Lambda=5.833m Vto=-1.691 Vtotc=-2.5m Is=114.5f Isr=1.091p N=1 Nr=2 Xti=3 Alpha=506.8u Vk=251.7 Cgd=2p M=227.1m Pb=500m Fc=500m Cgs=2.083p Kf=2.004e-003f Af=1)
