* J2N3954
* jfet/njf/j2n3954.mod

.MODEL J2N3954 NJF(Beta=768.3u Betatce=-500m Rd=1 Rs=1 Lambda=4.25m Vto=-2.033 Vtotc=-2.5m Is=24.55f Isr=240.1f N=1 Nr=2 Xti=3 Alpha=764.7u Vk=267.7 Cgd=1.71p M=500m Pb=1 Fc=500m Cgs=860f Kf=2.636e-002f Af=1)
