* J2N3969A
* jfet/njf/j2n3969a.mod

.MODEL J2N3969A NJF(Beta=1.57m Betatce=-500m Rd=1 Rs=1 Lambda=1.5m Vto=-734m Vtotc=-2.5m Is=181.3f Isr=1.747p N=1 Nr=2 Xti=3 Alpha=2.543u Vk=152.2 Cgd=4p M=311.4m Pb=500m Fc=500m Cgs=3.742p Kf=1.481e-002f Af=1)
