* J2N4118A
* jfet/njf/j2n4118a.mod

.MODEL J2N4118A NJF(Beta=52.58u Betatce=-500m Rd=1 Rs=1 Lambda=15m Vto=-1.732 Vtotc=-2.5m Is=5.261f Isr=51.03f N=1 Nr=2 Xti=3 Alpha=797.9n Vk=90.45 Cgd=3.94p M=433.5m Pb=1 Fc=500m Cgs=4.93p Kf=7.67e-002f Af=1)
