* J2N4416A
* jfet/njf/j2n4416a.mod

.MODEL J2N4416A NJF(Beta=989.4u Betatce=-500m Rd=1 Rs=1 Lambda=5.5m Vto=-3.06 Vtotc=-2.5m Is=33.57f Isr=322.4f N=1 Nr=2 Xti=3 Alpha=311.7 Vk=243.6 Cgd=1.6p M=362.2m Pb=1 Fc=500m Cgs=2.414p Kf=7.445e-003f Af=1)
