* J2N4857A
* jfet/njf/j2n4857a.mod

.MODEL J2N4857A NJF(Beta=6.313m Betatce=-500m Rd=1 Rs=1 Lambda=9.5m Vto=-3.05 Vtotc=-2.5m Is=205.2f Isr=1.988p N=1 Nr=2 Xti=3 Alpha=20.98u Vk=123.7 Cgd=5.34p M=406.9m Pb=1 Fc=500m Cgs=4.74p Kf=8.447e-002f Af=1)
