* J2N4867
* jfet/njf/j2n4867.mod

.MODEL J2N4867 NJF(Beta=609.1u Betatce=-500m Rd=1 Rs=1 Lambda=7m Vto=-1.145 Vtotc=-2.5m Is=29.04f Isr=281.9f N=1 Nr=2 Xti=3 Alpha=698u Vk=270.4 Cgd=8p M=360.1m Pb=1 Fc=500m Cgs=12p Kf=4.832e-002f Af=1)
