* J2N4117A
* jfet/njf/j2n4117a.mod

.MODEL J2N4117A NJF(Beta=49.01u Betatce=-500m Rd=1 Rs=1 Lambda=13m Vto=-1.1 Vtotc=-2.5m Is=5.261f Isr=51.03f N=1 Nr=2 Xti=3 Alpha=797.9n Vk=90.45 Cgd=3.94p M=433.5m Pb=1 Fc=500m Cgs=4.93p Kf=7.097e-002f Af=1)
