* J2N4856A
* jfet/njf/j2n4856a.mod

.MODEL J2N4856A NJF(Beta=3.084m Betatce=-500m Rd=1 Rs=1 Lambda=11m Vto=-5.517 Vtotc=-2.5m Is=205.2f Isr=1.988p N=1 Nr=2 Xti=3 Alpha=20.98u Vk=123.7 Cgd=5.71p M=406.9m Pb=1 Fc=500m Cgs=5.07p Kf=4.023e-002f Af=1)
