* J2N4858A
* jfet/njf/j2n4858a.mod

.MODEL J2N4858A NJF(Beta=7.646m Betatce=-500m Rd=1 Rs=1 Lambda=8m Vto=-2.387 Vtotc=-2.5m Is=205.2f Isr=1.988p N=1 Nr=2 Xti=3 Alpha=20.98u Vk=123.7 Cgd=5.34p M=406.9m Pb=1 Fc=500m Cgs=4.74p Kf=0.1028f Af=1)
