* J2N4868A
* jfet/njf/j2n4868a.mod

.MODEL J2N4868A NJF(Beta=768.3u Betatce=-500m Rd=1 Rs=1 Lambda=6.667m Vto=-1.643 Vtotc=-2.5m Is=29.04f Isr=281.9f N=1 Nr=2 Xti=3 Alpha=698u Vk=270.4 Cgd=8p M=360.1m Pb=1 Fc=500m Cgs=12p Kf=1.019e-002f Af=1)
