* J2N5397
* jfet/njf/j2n5397.mod

.MODEL J2N5397 NJF(Beta=1.242m Betatce=-500m Rd=1 Rs=1 Lambda=8m Vto=-3.679 Vtotc=-2.5m Is=101.9f Isr=977.5f N=1 Nr=2 Xti=3 Alpha=13.92u Vk=88.13 Cgd=2.6p M=344.8m Pb=1 Fc=500m Cgs=3.598p Kf=1.952e-002f Af=1)
