* J2N5433
* jfet/njf/j2n5433.mod

.MODEL J2N5433 NJF(Beta=12.42m Betatce=-500m Rd=1 Rs=1 Lambda=40m Vto=-4.16 Vtotc=-2.5m Is=533.7f Isr=5.174p N=1 Nr=2 Xti=3 Alpha=152.8u Vk=111.9 Cgd=35.6p M=428.3m Pb=1 Fc=500m Cgs=35.6p Kf=0.1699f Af=1)
