* J2N5654
* jfet/njf/j2n5654.mod

.MODEL J2N5654 NJF(Beta=4.554m Betatce=-500m Rd=1 Rs=1 Lambda=13m Vto=-3.294 Vtotc=-2.5m Is=205.2f Isr=1.988p N=1 Nr=2 Xti=3 Alpha=20.98u Vk=123.7 Cgd=5.88p M=406.9m Pb=1 Fc=500m Cgs=5.22p Kf=6.033e-002f Af=1)
