* J2N5486
* jfet/njf/j2n5486.mod

.MODEL J2N5486 NJF(Beta=736.9u Betatce=-500m Rd=1 Rs=1 Lambda=9.5m Vto=-3.889 Vtotc=-2.5m Is=33.57f Isr=322.4f N=1 Nr=2 Xti=3 Alpha=311.7 Vk=243.6 Cgd=1.6p M=362.2m Pb=1 Fc=500m Cgs=2.414p Kf=5.497e-003f Af=1)
