* J2N5458
* jfet/njf/j2n5458.mod

.MODEL J2N5458 NJF(Beta=488.9u Betatce=-500m Rd=1 Rs=1 Lambda=3.167m Vto=-2.882 Vtotc=-2.5m Is=181.3f Isr=1.747p N=1 Nr=2 Xti=3 Alpha=2.543u Vk=152.2 Cgd=4p M=311.4m Pb=500m Fc=500m Cgs=4.627p Kf=4.284e-003f Af=1)
