* J2N5668
* jfet/njf/j2n5668.mod

.MODEL J2N5668 NJF(Beta=2.224m Betatce=-500m Rd=1 Rs=1 Lambda=2.25m Vto=-1.24 Vtotc=-2.5m Is=33.57f Isr=322.4f N=1 Nr=2 Xti=3 Alpha=311.7 Vk=243.6 Cgd=1.6p M=362.2m Pb=1 Fc=500m Cgs=2.414p Kf=1.723e-002f Af=1)
