* J2N5909
* jfet/njf/j2n5909.mod

.MODEL J2N5909 NJF(Beta=120u Betatce=-500m Rd=1 Rs=1 Lambda=900u Vto=-1.652 Vtotc=-2.5m Is=16.33f Isr=157.3f N=1 Nr=2 Xti=3 Alpha=26.25n Vk=211.9 Cgd=1.23p M=333m Pb=1 Fc=500m Cgs=1.23p Kf=0.3047f Af=1)
