* J2N5485
* jfet/njf/j2n5485.mod

.MODEL J2N5485 NJF(Beta=1.039m Betatce=-500m Rd=1 Rs=1 Lambda=4.25m Vto=-2.5 Vtotc=-2.5m Is=33.57f Isr=322.4f N=1 Nr=2 Xti=3 Alpha=311.7 Vk=243.6 Cgd=1.6p M=362.2m Pb=1 Fc=500m Cgs=2.414p Kf=7.832e-003f Af=1)
