* J2N5638
* jfet/njf/j2n5638.mod

.MODEL J2N5638 NJF(Beta=3.542m Betatce=-500m Rd=1 Rs=1 Lambda=17.5m Vto=-4.887 Vtotc=-2.5m Is=205.2f Isr=1.988p N=1 Nr=2 Xti=3 Alpha=20.98u Vk=123.7 Cgd=6.7p M=406.9m Pb=1 Fc=500m Cgs=5.95p Kf=4.648e-002f Af=1)
