* J2N5459
* jfet/njf/j2n5459.mod

.MODEL J2N5459 NJF(Beta=377.6u Betatce=-500m Rd=1 Rs=1 Lambda=4.167m Vto=-4.473 Vtotc=-2.5m Is=181.3f Isr=1.747p N=1 Nr=2 Xti=3 Alpha=2.543u Vk=152.2 Cgd=4p M=311.4m Pb=500m Fc=500m Cgs=4.627p Kf=3.227e-003f Af=1)
