* J2N5432
* jfet/njf/j2n5432.mod

.MODEL J2N5432 NJF(Beta=9.109m Betatce=-500m Rd=1 Rs=1 Lambda=50m Vto=-5.397 Vtotc=-2.5m Is=533.7f Isr=5.174p N=1 Nr=2 Xti=3 Alpha=152.8u Vk=111.9 Cgd=35.6p M=428.3m Pb=1 Fc=500m Cgs=35.6p Kf=0.1243f Af=1)
