* J2N5950
* jfet/njf/j2n5950.mod

.MODEL J2N5950 NJF(Beta=696.4u Betatce=-500m Rd=1 Rs=1 Lambda=11.25m Vto=-3.892 Vtotc=-2.5m Is=33.57f Isr=322.4f N=1 Nr=2 Xti=3 Alpha=311.7 Vk=243.6 Cgd=1.6p M=362.2m Pb=1 Fc=500m Cgs=2.414p Kf=5.326e-003f Af=1)
