* J2N5951
* jfet/njf/j2n5951.mod

.MODEL J2N5951 NJF(Beta=736.9u Betatce=-500m Rd=1 Rs=1 Lambda=7.25m Vto=-3.427 Vtotc=-2.5m Is=33.57f Isr=322.4f N=1 Nr=2 Xti=3 Alpha=311.7 Vk=243.6 Cgd=1.6p M=362.2m Pb=1 Fc=500m Cgs=2.414p Kf=5.642e-003f Af=1)
