* J2N5197
* jfet/njf/j2n5197.mod

.MODEL J2N5197 NJF(Beta=812.9u Betatce=-500m Rd=1 Rs=1 Lambda=5m Vto=-2.257 Vtotc=-2.5m Is=24.55f Isr=240.1f N=1 Nr=2 Xti=3 Alpha=764.7u Vk=267.7 Cgd=3.28p M=500m Pb=1 Fc=500m Cgs=1.64p Kf=3.664e-003f Af=1)
