* J2N5078
* jfet/njf/j2n5078.mod

.MODEL J2N5078 NJF(Beta=850.8u Betatce=-500m Rd=1 Rs=1 Lambda=6.75m Vto=-3.97 Vtotc=-2.5m Is=33.57f Isr=322.4f N=1 Nr=2 Xti=3 Alpha=311.7 Vk=243.6 Cgd=1.6p M=362.2m Pb=1 Fc=500m Cgs=2.414p Kf=6.375e-003f Af=1)
