* J2N5561
* jfet/njf/j2n5561.mod

.MODEL J2N5561 NJF(Beta=1.617m Betatce=-500m Rd=1 Rs=1 Lambda=8m Vto=-1.373 Vtotc=-2.5m Is=19.73f Isr=191.3f N=1 Nr=2 Xti=3 Alpha=68.56u Vk=212.2 Cgd=5.6p M=391.6m Pb=500m Fc=500m Cgs=7.546p Kf=4.715e-003f Af=1)
