* J2N5452
* jfet/njf/j2n5452.mod

.MODEL J2N5452 NJF(Beta=768.3u Betatce=-500m Rd=1 Rs=1 Lambda=2.5m Vto=-2.017 Vtotc=-2.5m Is=24.55f Isr=240.1f N=1 Nr=2 Xti=3 Alpha=764.7u Vk=267.7 Cgd=1.71p M=500m Pb=1 Fc=500m Cgs=860f Kf=3.664e-003f Af=1)
