* J2N5545
* jfet/njf/j2n5545.mod

.MODEL J2N5545 NJF(Beta=1.271m Betatce=-500m Rd=1 Rs=1 Lambda=4m Vto=-2 Vtotc=-2.5m Is=24.55f Isr=240.1f N=1 Nr=2 Xti=3 Alpha=764.7u Vk=267.7 Cgd=3.28p M=500m Pb=1 Fc=500m Cgs=1.64p Kf=5.584e-002f Af=1)
