* J2N5953
* jfet/njf/j2n5953.mod

.MODEL J2N5953 NJF(Beta=1.645m Betatce=-500m Rd=1 Rs=1 Lambda=2.404m Vto=-1.444 Vtotc=-2.5m Is=33.57f Isr=322.4f N=1 Nr=2 Xti=3 Alpha=311.7 Vk=243.6 Cgd=1.6p M=362.2m Pb=1 Fc=500m Cgs=2.414p Kf=1.272e-002f Af=1)
