* J2N5912
* jfet/njf/j2n5912.mod

.MODEL J2N5912 NJF(Beta=2.203m Betatce=-500m Rd=1 Rs=1 Lambda=12m Vto=-2.694 Vtotc=-2.5m Is=94.35f Isr=907.9f N=1 Nr=2 Xti=3 Alpha=13.92u Vk=88.13 Cgd=2.822p M=374.4m Pb=1 Fc=500m Cgs=3.65p Kf=3.64e-002f Af=1)
