* J2N5556
* jfet/njf/j2n5556.mod

.MODEL J2N5556 NJF(Beta=2.194m Betatce=-500m Rd=1 Rs=1 Lambda=3.8m Vto=-875m Vtotc=-2.5m Is=33.57f Isr=322.4f N=1 Nr=2 Xti=3 Alpha=311.7 Vk=243.6 Cgd=1.6p M=362.2m Pb=1 Fc=500m Cgs=2.414p Kf=1.7e-002f Af=1)
