* J2N5518
* jfet/njf/j2n5518.mod

.MODEL J2N5518 NJF(Beta=518.5u Betatce=-500m Rd=1 Rs=1 Lambda=300u Vto=-2.5 Vtotc=-2.5m Is=52.8f Isr=517.3f N=1 Nr=2 Xti=3 Alpha=19.01u Vk=251.2 Cgd=8p M=489.3m Pb=500m Fc=500m Cgs=14.64p Kf=1.72e-002f Af=1)
