* J2N6907
* jfet/njf/j2n6907.mod

.MODEL J2N6907 NJF(Beta=4.032m Betatce=-500m Rd=1 Rs=1 Lambda=10m Vto=-1.215 Vtotc=-2.5m Is=43.63f Isr=423.6f N=1 Nr=2 Xti=3 Alpha=63.26u Vk=146.3 Cgd=4.08p M=435.9m Pb=1 Fc=500m Cgs=4.08p Kf=5.799e-002f Af=1)
