* J2SK117
* jfet/njf/j2sk117.mod

.model J2sk117 NJF(Beta=26.72m Rs=12.31 Rd=12.31 Betatce=-.5 Lambda=2.462m Vto=-.8647 Vtotc=-2.5m Cgd=7.762p M=.384 Pb=1.153 Fc=.5 Cgs=14.09p Isr=112.8p Nr=2 Is=11.28p N=1 Xti=3 Alpha=10u Vk=100 Kf=1E-18 Af=1)
