* J2SK389BL
* jfet/njf/j2sk389bl.mod

.model J2SK389BL NJF (Vto=-2.5 Beta=6m Lambda=1m2 Rd=4.95 Rs=4.45 Is=6f32 Pb=1 Fc=.5 Cgs=71p2 Cgd=18p9)
