* J2SK152
* jfet/njf/j2sk152.mod

.model J2sk152 NJF(Beta=22.6m Rs=9.028 Rd=9.028 Betatce=-.5 Lambda=33.33m Vto=-1.067 Vtotc=-2.5m Cgd=3.634p M=.3333 Pb=1 Fc=.5 Cgs=5.892p Isr=51.93p Nr=864.6 Is=5.193p N=1 Xti=3 Alpha=435.7u Vk=81.6 Kf=2.599E-18 Af=.7991)
