* J304
* jfet/njf/j304.mod

.MODEL J304 NJF(Beta=729u Betatce=-500m Rd=1 Rs=1 Lambda=10m Vto=-3.52 Vtotc=-2.5m Is=33.57f Isr=322.4f N=1 Nr=2 Xti=3 Alpha=311.7 Vk=243.6 Cgd=2.17p M=362.2m Pb=1 Fc=500m Cgs=2.205p Kf=5.58e-003f Af=1)
