* J305
* jfet/njf/j305.mod

.MODEL J305 NJF(Beta=2.104m Betatce=-500m Rd=1 Rs=1 Lambda=6.667m Vto=-1.44 Vtotc=-2.5m Is=33.57f Isr=322.4f N=1 Nr=2 Xti=3 Alpha=311.7 Vk=243.6 Cgd=2.17p M=362.2m Pb=1 Fc=500m Cgs=2.205p Kf=1.63e-002f Af=1)
