* J309
* jfet/njf/j309.mod

.MODEL J309 NJF(VTO=-2.3973 BETA=3.81468m BETATCE=-0.5 LAMBDA=3.80761E-2 RD=2.33008 RS=2.33008 CGS=6.50000p CGD=5.70000p PB=6.83767E-1 IS=3.02702E-16 XTI=3 AF=1 FC=0.5 N=1 NR=2)

* MFG: PHILIPS
