* J310A
* jfet/njf/j310a.mod

.model J310A NJF(Beta=3.384m Betatce=-.5 Rd=1 Rs=1 Lambda=17m Vto=-3.409 Vtotc=-2.5m Is=193.9f Isr=1.881p N=1 Nr=2 Xti=3 Alpha=7.533u Vk=74.1 Cgd=6.2p M=.4647 Pb=1 Fc=.5 Cgs=6.2p Kf=46.34E-18 Af=1)
