* J401
* jfet/njf/j401.mod

.MODEL J401 NJF(VTO=-1.316 BETA=1.577m BETATCE=-0.5 LAMBDA=10m RD=1 RS=1 CGS=6.044p CGD=5.6p PB=0.5 IS=19.73f XTI=3 AF=1 FC=0.5 N=1 NR=2 MFG=NSC)
