* J410
* jfet/njf/j410.mod

.MODEL J410 NJF(VTO=-2 BETA=858.8u BETATCE=-0.5 LAMBDA=3.5m RD=1 RS=1 CGS=1p CGD=2p PB=1 IS=24.55f XTI=3 AF=1 FC=0.5 N=1 NR=2)

* MFG: NSC
