* KP303A
* jfet/njf/kp303a.mod

.model kp303a njf vt0=-0.9 beta=1.6m lambda=0.02 rd=30 rs=35 cgs=5p cgd=4p is=100f B=1.2 kf=1.e-16 af=1.4 MFG=USSR
