* KP307B
* jfet/njf/kp307b.mod

.model kp307b njf vt0=-2.2 beta=0.002 lambda=15m rd=20 rs=15 cgs=5p cgd=1.5p pb=0.5 is=114.5f fc=0.5 kf=5e-18 af=0.5 MFG=USSR
