* KP303G
* jfet/njf/kp303g.mod

.MODEL KP303G NJF VTO=-2.5 BETA=0.001 LAMBDA=0.025 RD=22 RS=17 IS=1.145e-13 CGD=4p CGS=5p PB=0.5 B=1.2 KF=7e-17 AF=1.3 FC=0.5 MFG=USSR
