* KP307A
* jfet/njf/kp307a.mod

.model kp307a njf vt0=-1.5 beta=0.0023 lambda=15m rd=20 rs=15 cgs=5p cgd=1.5p pb=0.5 is=114.5f fc=0.5 kf=5e-18 af=0.5 MFG=USSR
