* KP302A
* jfet/njf/kp302a.mod

.model kp302a njf vt0=-2 beta=0.0025 lambda=30m rd=15 rs=3 cgs=12p cgd=25p pb=0.5 is=114.5f fc=0.5 kf=4e-16 af=1

* MFG: USSR
