* KP303B
* jfet/njf/kp303b.mod

.model kp303b njf vt0=-2.0 beta=2.0m lambda=0.02 rd=30 rs=35 cgs=5p cgd=4p is=100f B=1.2 kf=1.f af=1

* MFG: USSR
