* KP365
* jfet/njf/kp365.mod

.model kp365 njf vt0=-1.2 beta=10m lambda=0.03 rd=8 rs=8 cgs=4p cgd=5p pb=1 is=50p fc=0. kf=2.f af=1

* MFG: USSR
