* KP903A
* jfet/njf/kp903a.mod

.model KP903A njf vto=-6 beta=13m lambda=10m rs=0.36 rd=0.3 is=1n cgd=80p cgs=80p kf=3.e-17 af=0.5 b=1 MFG=USSR
