* KPS104V
* jfet/njf/kps104v.mod

.MODEL KPS104V NJF VTO=-0.9 BETA=0.0015 LAMBDA=0.008 RD=20 RS=15 IS=1.145e-13 CGD=1.2p CGS=4p PB=0.5 B=1 KF=5e-18 AF=0.5 FC=0.5 MFG=USSR
