* KPS104A
* jfet/njf/kps104a.mod

.MODEL KPS104A NJF VTO=-0.4 BETA=0.002 LAMBDA=0.005 RD=20 RS=15 IS=1.145e-13 CGD=1.2p CGS=4p PB=0.5 B=1 KF=5e-18 AF=0.5 FC=0.5 MFG=USSR
