* KPS104G
* jfet/njf/kps104g.mod

.MODEL KPS104G NJF VTO=-1.5 BETA=0.001 LAMBDA=0.01 RD=20 RS=15 IS=1.145e-13 CGD=1.2p CGS=4p PB=0.5 B=1 KF=5e-18 AF=0.5 FC=0.5 MFG=USSR
