* LSK170C
* jfet/njf/lsk170c.mod

.MODEL LSK170C NJF BETA=0.0278541 VTO=-0.800434 LAMBDA=0.0122435 IS=2.45217E-14 N=1 RD=12 RS=5.8 CGD=4.22E-11 CGS=4.23E-11 PB=0.9265487 MJ=0.6098477 FC=0.5 KF=4e-18 AF=1
