* LSK170A
* jfet/njf/lsk170a.mod

.MODEL LSK170A NJF BETA=0.0378643 VTO=-0.4025156 LAMBDA=4.783719m IS=3.55773E-14 N=1 RD=10.6565 RS=6.8790487 CGD=3.99E-11 CGS=4.06518E-11 PB=0.981382 MJ=0.794653 FC=0.5 KF=5e-18 AF=1
