* LSK389B
* jfet/njf/lsk389b.mod

.MODEL LSK389B NJF BETA=0.0350699 VTO=-0.5375582 LAMBDA=4.951m IS=2.76212E-14 N=1 RD=7.82168 RS=6.9525888 CGD=4.36E-11 CGS=4.36E-11 PB=1.2 MJ=0.8892205 FC=0.5 KF=5e-18 AF=1
