* MMBF4391
* jfet/njf/mmbf4391.mod

.MODEL MMBF4391 NJF VTO=-4.6 BETA=0.02779 LAMBDA=0.00595 RD=1 RS=1 IS=1e-14 CGD=14p CGS=10.5p PB=1 B=1 KF=1e-18 AF=1 FC=0.5 mfg=Motorola
