* MPF105
* jfet/njf/mpf105.mod

.model MPF105 NJF(Beta=377.6u Betatce=-.5 Rd=1 Rs=1 Lambda=4.167m Vto=-4.473 Vtotc=-2.5m Is=181.3f Isr=1.747p N=1 Nr=2 Xti=3 Alpha=2.543u Vk=152.2 Cgd=4p M=.3114 Pb=.5 Fc=.5 Cgs=4.627p Kf=3.227E-18 Af=1)
