* MPF104
* jfet/njf/mpf104.mod

.model MPF104 NJF(Beta=488.9u Betatce=-.5 Rd=1 Rs=1 Lambda=3.83m Vto=-2.882 Vtotc=-2.5m Is=181.3f Isr=1.747p N=1 Nr=2 Xti=3 Alpha=2.543u Vk=152.2 Cgd=4p M=.3114 Pb=.5 Fc=.5 Cgs=4.627p Kf=4.284E-18 Af=1)
