* MPF112
* jfet/njf/mpf112.mod

.model MPF112 NJF(Beta=377.1u Betatce=-.5 Rd=1 Rs=1 Lambda=4.1m Vto=-3.85 Vtotc=-2.5m Is=181.3f Isr=1.747p N=1 Nr=2 Xti=3 Alpha=2.543u Vk=152.2 Cgd=4p M=.3114 Pb=.5 Fc=.5 Cgs=4.627p Kf=3.222E-18 Af=1)
