* MPF103
* jfet/njf/mpf103.mod

.model MPF103 NJF(Beta=561.5u Betatce=-.5 Rd=1 Rs=1 Lambda=3.5m Vto=-1.947 Vtotc=-2.5m Is=181.3f Isr=1.747p N=1 Nr=2 Xti=3 Alpha=2.543u Vk=152.2 Cgd=4p M=.3114 Pb=.5 Fc=.5 Cgs=4.627p Kf=4.978E-18 Af=1)
