* MPF102D
* jfet/njf/mpf102d.mod

.MODEL MPF102D NJF(Beta=1.04m Betatce=-500m Rd=1 Rs=1 Lambda=2m Vto=-3.41 Vtotc=-2.5m Is=33.57f Isr=322.4f N=1 Nr=2 Xti=3 Alpha=311.7 Vk=243.6 Cgd=1.6p M=362.2m Pb=1 Fc=500m Cgs=2.414p Kf=1.173e-002f Af=1)
