* MPF106
* jfet/njf/mpf106.mod

.model MPF106 NJF(Beta=1.518m Betatce=-.5 Rd=1 Rs=1 Lambda=2.25m Vto=-2.21 Vtotc=-2.5m Is=33.57f Isr=322.4f N=1 Nr=2 Xti=3 Alpha=311.7u Vk=243.6 Cgd=1.6p M=.3622 Pb=1 Fc=.5 Cgs=2.414p Kf=11.73E-18 Af=1)
