* MPF109
* jfet/njf/mpf109.mod

.model MPF109 NJF(Beta=435u Betatce=-.5 Rd=1 Rs=1 Lambda=3.9m Vto=-3.51 Vtotc=-2.5m Is=181.3f Isr=1.747p N=1 Nr=2 Xti=3 Alpha=2.543u Vk=152.2 Cgd=4p M=.3114 Pb=.5 Fc=.5 Cgs=4.627p Kf=3.67E-18 Af=1)
