* MPF108
* jfet/njf/mpf108.mod

.model MPF108 NJF(Beta=741.2u Betatce=-.5 Rd=1 Rs=1 Lambda=3m Vto=-2.789 Vtotc=-2.5m Is=181.3f Isr=1.747p N=1 Nr=2 Xti=3 Alpha=2.543u Vk=152.2 Cgd=4p M=.3114 Pb=.5 Fc=.5 Cgs=4.627p Kf=6.709E-18 Af=1)
