* MPF111
* jfet/njf/mpf111.mod

.model MPF111 NJF(Beta=769.7m Betatce=-.5 Rd=1 Rs=1 Lambda=9m Vto=-3.88 Vtotc=-2.5m Is=33.57f Isr=322.4f N=1 Nr=2 Xti=3 Alpha=311.7u Vk=243.6 Cgd=1.6p M=.3622 Pb=1 Fc=.5 Cgs=2.414p Kf=12.01E-18 Af=1)
