* MPF256
* jfet/njf/mpf256.mod

.MODEL MPF256 NJF(Beta=1.548m Betatce=-500m Rd=1 Rs=1 Lambda=7.62m Vto=-2.127 Vtotc=-2.5m Is=101.9f Isr=977.5f N=1 Nr=2 Xti=3 Alpha=13.92u Vk=88.13 Cgd=3p M=344.8m Pb=1 Fc=500m Cgs=3.383p Kf=2.429e-002f Af=1)
