* MPF3970
* jfet/njf/mpf3970.mod

.MODEL MPF3970 NJF(Beta=4.032m Betatce=-500m Rd=1 Rs=1 Lambda=23m Vto=-4.514 Vtotc=-2.5m Is=205.2f Isr=1.988p N=1 Nr=2 Xti=3 Alpha=20.98u Vk=123.7 Cgd=10.48p M=406.9m Pb=1 Fc=500m Cgs=9.31p Kf=5.318e-002f Af=1)
