* MPF4392
* jfet/njf/mpf4392.mod

.MODEL MPF4392 NJF(Beta=5.108m Betatce=-500m Rd=1 Rs=1 Lambda=10m Vto=-3.018 Vtotc=-2.5m Is=205.2f Isr=1.988p N=1 Nr=2 Xti=3 Alpha=20.98u Vk=123.7 Cgd=4.83p M=406.9m Pb=1 Fc=500m Cgs=4.29p Kf=6.793e-002f Af=1)
