* MPF4119
* jfet/njf/mpf4119.mod

.MODEL MPF4119 NJF(Beta=68.08u Betatce=-500m Rd=1 Rs=1 Lambda=19m Vto=-2.536 Vtotc=-2.5m Is=5.261f Isr=51.03f N=1 Nr=2 Xti=3 Alpha=797.9n Vk=90.45 Cgd=3.94p M=433.5m Pb=1 Fc=500m Cgs=4.93p Kf=0.1018f Af=1)
