* MPF4093
* jfet/njf/mpf4093.mod

.MODEL MPF4093 NJF(Beta=5.695m Betatce=-500m Rd=1 Rs=1 Lambda=8m Vto=-1.989 Vtotc=-2.5m Is=205.2f Isr=1.988p N=1 Nr=2 Xti=3 Alpha=20.98u Vk=123.7 Cgd=7.94p M=406.9m Pb=1 Fc=500m Cgs=7.06p Kf=7.598e-002f Af=1)
