* MPF4858
* jfet/njf/mpf4858.mod

.MODEL MPF4858 NJF(Beta=7.646m Betatce=-500m Rd=1 Rs=1 Lambda=8m Vto=-2.387 Vtotc=-2.5m Is=205.2f Isr=1.988p N=1 Nr=2 Xti=3 Alpha=20.98u Vk=123.7 Cgd=15.92p M=406.9m Pb=1 Fc=500m Cgs=14.16p Kf=0.1028f Af=1)
