* MPF820
* jfet/njf/mpf820.mod

.MODEL MPF820 NJF(Beta=6.964m Betatce=-500m Rd=1 Rs=1 Lambda=10m Vto=-2.204 Vtotc=-2.5m Is=205.2f Isr=1.988p N=1 Nr=2 Xti=3 Alpha=20.98u Vk=123.7 Cgd=7.94p M=406.9m Pb=1 Fc=500m Cgs=7.06p Kf=9.342e-002f Af=1)
