* NDF9406
* jfet/njf/ndf9406.mod

.MODEL NDF9406 NJF(VTO=-2.25 BETA=1.004m BETATCE=-0.5 LAMBDA=2m RD=1 RS=1 CGS=2.1p CGD=4.2p PB=1 IS=32.73f XTI=3 AF=1 FC=0.5 N=1 NR=2)

* MFG: NSC
