* NDF9410
* jfet/njf/ndf9410.mod

.MODEL NDF9410 NJF(Beta=1.004m Betatce=-500m Rd=1 Rs=1 Lambda=2m Vto=-2.25 Vtotc=-2.5m Is=32.73f Isr=320.2f N=1 Nr=2 Xti=3 Cgd=4.2p Alpha=48.15p Vk=120 M=500m Pb=1 Fc=500m Cgs=2.1p Kf=5.278e-003f Af=1)
