* NF5103
* jfet/njf/nf5103.mod

.MODEL NF5103 NJF(VTO=-1.4 BETA=14.28m BETATCE=-0.5 LAMBDA=9m RD=1 RS=1 CGS=9.56p CGD=10.76p PB=1 IS=205.2f XTI=3 AF=1 FC=0.5 N=1 NR=2)

* MFG: NSC
