* NF5101
* jfet/njf/nf5101.mod

.MODEL NF5101 NJF(VTO=-0.7414 BETA=12.42m BETATCE=-0.5 LAMBDA=3m RD=1 RS=1 CGS=9.56p CGD=10.76p PB=1 IS=205.2f XTI=3 AF=1 FC=0.5 N=1 NR=2)

* MFG: NSC
