* NF5102
* jfet/njf/nf5102.mod

.MODEL NF5102 NJF(VTO=-1.001 BETA=14.28m BETATCE=-0.5 LAMBDA=8m RD=1 RS=1 CGS=9.56p CGD=10.76p PB=1 IS=205.2f XTI=3 AF=1 FC=0.5 N=1 NR=2)

* MFG: NSC
