* NF5301-1
* jfet/njf/nf5301-1.mod

.MODEL NF5301-1 NJF(Beta=81.03u Betatce=-500m Rd=1 Rs=1 Lambda=15m Vto=-1.428 Vtotc=-2.5m Is=5.261f Isr=51.03f N=1 Nr=2 Xti=3 Alpha=797.9n Vk=90.45 Cgd=3.94p M=433.5m Pb=1 Fc=500m Cgs=4.93p Kf=0.123f Af=1)
