* NF5301
* jfet/njf/nf5301.mod

.MODEL NF5301 NJF(VTO=-1.887 BETA=62.04u BETATCE=-0.5 LAMBDA=15m RD=1 RS=1 CGS=4.93p CGD=3.94p PB=1 IS=5.261f XTI=3 AF=1 FC=0.5 N=1 NR=2 MFG=NSC)
