* NPD5565
* jfet/njf/npd5565.mod

.MODEL NPD5565 NJF(Beta=9.109m Betatce=-500m Rd=1 Rs=1 Lambda=7.5m Vto=-1.447 Vtotc=-2.5m Is=94.42f Isr=921.9f N=1 Nr=2 Xti=3 Alpha=88.38u Vk=171.6 Cgd=8.67p M=474.2m Pb=1 Fc=500m Cgs=9.76p Kf=6.786e-002f Af=1)
