* NPD8303
* jfet/njf/npd8303.mod

.MODEL NPD8303 NJF(Beta=858.8u Betatce=-500m Rd=1 Rs=1 Lambda=3.5m Vto=-2 Vtotc=-2.5m Is=24.55f Isr=240.1f N=1 Nr=2 Xti=3 Alpha=764.7u Vk=267.7 Cgd=2p M=500m Pb=1 Fc=500m Cgs=1p Kf=8.821e-003f Af=1)
