* PF5101
* jfet/njf/pf5101.mod

.MODEL PF5101 NJF(Beta=12.42m Betatce=-500m Rd=1 Rs=1 Lambda=5m Vto=-762.7m Vtotc=-2.5m Is=205.2f Isr=1.988p N=1 Nr=2 Xti=3 Alpha=20.98u Vk=123.7 Cgd=10.76p M=406.9m Pb=1 Fc=500m Cgs=9.56p Kf=0.4244f Af=1)
