* PF5103
* jfet/njf/pf5103.mod

.MODEL PF5103 NJF(Beta=14.28m Betatce=-500m Rd=1 Rs=1 Lambda=10m Vto=-1.372 Vtotc=-2.5m Is=205.2f Isr=1.988p N=1 Nr=2 Xti=3 Alpha=20.98u Vk=123.7 Cgd=10.76p M=406.9m Pb=1 Fc=500m Cgs=9.56p Kf=0.4931f Af=1)
