* PN3686
* jfet/njf/pn3686.mod

.MODEL PN3686 NJF(Beta=723.7u Betatce=-500m Rd=1 Rs=1 Lambda=2.333m Vto=-957m Vtotc=-2.5m Is=114.5f Isr=1.091p N=1 Nr=2 Xti=3 Alpha=506.8u Vk=251.7 Cgd=2p M=227.1m Pb=500m Fc=500m Cgs=2.083p Kf=2.697e-003f Af=1)
