* PN3687
* jfet/njf/pn3687.mod

.MODEL PN3687 NJF(Beta=840u Betatce=-500m Rd=1 Rs=1 Lambda=1.167m Vto=-510.2m Vtotc=-2.5m Is=114.5f Isr=1.091p N=1 Nr=2 Xti=3 Alpha=506.8u Vk=251.7 Cgd=2p M=227.1m Pb=500m Fc=500m Cgs=2.083p Kf=3.146e-003f Af=1)
