* PN4093
* jfet/njf/pn4093.mod

.MODEL PN4093 NJF(Beta=8.508m Betatce=-500m Rd=1 Rs=1 Lambda=8m Vto=-1.973 Vtotc=-2.5m Is=205.2f Isr=1.988p N=1 Nr=2 Xti=3 Alpha=20.98u Vk=123.7 Cgd=7.94p M=406.9m Pb=1 Fc=500m Cgs=7.06p Kf=0.1147f Af=1)
