* PN4091
* jfet/njf/pn4091.mod

.MODEL PN4091 NJF(Beta=2.417m Betatce=-500m Rd=1 Rs=1 Lambda=17m Vto=-5.481 Vtotc=-2.5m Is=205.2f Isr=1.988p N=1 Nr=2 Xti=3 Alpha=20.98u Vk=123.7 Cgd=7.94p M=406.9m Pb=1 Fc=500m Cgs=7.06p Kf=3.117e-002f Af=1)
