* PN4117
* jfet/njf/pn4117.mod

.MODEL PN4117 NJF(Beta=30.26u Betatce=-500m Rd=1 Rs=1 Lambda=13m Vto=-1.412 Vtotc=-2.5m Is=5.261f Isr=51.03f N=1 Nr=2 Xti=3 Alpha=797.9n Vk=90.45 Cgd=3.94p M=433.5m Pb=1 Fc=500m Cgs=4.93p Kf=4.121e-002f Af=1)
