* PN4220
* jfet/njf/pn4220.mod

.MODEL PN4220 NJF(Beta=819.8u Betatce=-500m Rd=1 Rs=1 Lambda=3.266m Vto=-1.195 Vtotc=-2.5m Is=181.3f Isr=1.747p N=1 Nr=2 Xti=3 Alpha=2.543u Vk=152.2 Cgd=4p M=311.4m Pb=500m Fc=500m Cgs=4.627p Kf=7.47e-003f Af=1)
