* PN4223
* jfet/njf/pn4223.mod

.MODEL PN4223 NJF(Beta=1.04m Betatce=-500m Rd=1 Rs=1 Lambda=5.5m Vto=-3.14 Vtotc=-2.5m Is=33.57f Isr=322.4f N=1 Nr=2 Xti=3 Alpha=311.7 Vk=243.6 Cgd=1.6p M=362.2m Pb=1 Fc=500m Cgs=2.414p Kf=7.839e-003f Af=1)
