* PN4221
* jfet/njf/pn4221.mod

.MODEL PN4221 NJF(Beta=726.3u Betatce=-500m Rd=1 Rs=1 Lambda=4.3m Vto=-2.139 Vtotc=-2.5m Is=181.3f Isr=1.747p N=1 Nr=2 Xti=3 Alpha=2.543u Vk=152.2 Cgd=4p M=311.4m Pb=500m Fc=500m Cgs=4.627p Kf=6.564e-003f Af=1)
