* PN4391
* jfet/njf/pn4391.mod

.MODEL PN4391 NJF(Beta=3.084m Betatce=-500m Rd=1 Rs=1 Lambda=17.5m Vto=-5.27 Vtotc=-2.5m Is=205.2f Isr=1.988p N=1 Nr=2 Xti=3 Alpha=20.98u Vk=123.7 Cgd=5.35p M=406.9m Pb=1 Fc=500m Cgs=4.76p Kf=4.023e-002f Af=1)
