* PN4302
* jfet/njf/pn4302.mod

.MODEL PN4302 NJF(Beta=650u Betatce=-500m Rd=1 Rs=1 Lambda=6m Vto=-1.55 Vtotc=-2.5m Is=114.5f Isr=1.091p N=1 Nr=2 Xti=3 Alpha=506.8u Vk=251.7 Cgd=2.8p M=227.1m Pb=500m Fc=500m Cgs=2.916p Kf=2.42e-003f Af=1)
