* PN4303
* jfet/njf/pn4303.mod

.MODEL PN4303 NJF(Beta=550u Betatce=-500m Rd=1 Rs=1 Lambda=9.5m Vto=-2.92 Vtotc=-2.5m Is=114.5f Isr=1.091p N=1 Nr=2 Xti=3 Alpha=506.8u Vk=251.7 Cgd=2.8p M=227.1m Pb=500m Fc=500m Cgs=2.916p Kf=2.03e-003f Af=1)
