* PN4393
* jfet/njf/pn4393.mod

.MODEL PN4393 NJF(Beta=9.109m Betatce=-500m Rd=1 Rs=1 Lambda=8m Vto=-1.417 Vtotc=-2.5m Is=205.2f Isr=1.988p N=1 Nr=2 Xti=3 Alpha=20.98u Vk=123.7 Cgd=4.57p M=406.9m Pb=1 Fc=500m Cgs=4.06p Kf=0.123f Af=1)
