* PN4392
* jfet/njf/pn4392.mod

.MODEL PN4392 NJF(Beta=5.816m Betatce=-500m Rd=1 Rs=1 Lambda=12m Vto=-2.808 Vtotc=-2.5m Is=205.2f Isr=1.988p N=1 Nr=2 Xti=3 Alpha=20.98u Vk=123.7 Cgd=4.83p M=406.9m Pb=1 Fc=500m Cgs=4.29p Kf=7.764e-002f Af=1)
