* PN4857
* jfet/njf/pn4857.mod

.MODEL PN4857 NJF(Beta=6.313m Betatce=-500m Rd=1 Rs=1 Lambda=13m Vto=-2.997 Vtotc=-2.5m Is=205.2f Isr=1.988p N=1 Nr=2 Xti=3 Alpha=20.98u Vk=123.7 Cgd=15.92p M=406.9m Pb=1 Fc=500m Cgs=14.16p Kf=8.447e-002f Af=1)
