* PN4861
* jfet/njf/pn4861.mod

.MODEL PN4861 NJF(Beta=9.109m Betatce=-500m Rd=1 Rs=1 Lambda=10m Vto=-2.18 Vtotc=-2.5m Is=205.2f Isr=1.988p N=1 Nr=2 Xti=3 Alpha=20.98u Vk=123.7 Cgd=15.92p M=406.9m Pb=1 Fc=500m Cgs=14.16p Kf=0.123f Af=1)
