* PN4859
* jfet/njf/pn4859.mod

.MODEL PN4859 NJF(Beta=3.084m Betatce=-500m Rd=1 Rs=1 Lambda=17.5m Vto=-5.704 Vtotc=-2.5m Is=205.2f Isr=1.988p N=1 Nr=2 Xti=3 Alpha=20.98u Vk=123.7 Cgd=15.92p M=406.9m Pb=1 Fc=500m Cgs=14.16p Kf=4.023e-002f Af=1)
