* PN5163
* jfet/njf/pn5163.mod

.MODEL PN5163 NJF(Beta=1.228m Betatce=-500m Rd=1 Rs=1 Lambda=9m Vto=-3.82 Vtotc=-2.5m Is=33.57f Isr=322.4f N=1 Nr=2 Xti=3 Alpha=311.7 Vk=243.6 Cgd=1.6p M=362.2m Pb=1 Fc=500m Cgs=2.414p Kf=9.469e-003f Af=1)
