* PN5434
* jfet/njf/pn5434.mod

.MODEL PN5434 NJF(Beta=17.3m Betatce=-500m Rd=1 Rs=1 Lambda=20m Vto=-1.949 Vtotc=-2.5m Is=533.7f Isr=5.174p N=1 Nr=2 Xti=3 Alpha=152.8u Vk=111.9 Cgd=35.6p M=428.3m Pb=1 Fc=500m Cgs=35.6p Kf=0.2369f Af=1)
