* QSK389BL
* jfet/njf/qsk389bl.mod

.MODEL QSK389BL NJF (VTO=-2.5 BETA=6M LAMBDA=1.2M RD=4.95 RS=4.45 IS=6.32F PB=1 FC=.5 CGS=71.2P CGD=18.9P)
