* QSK389
* jfet/njf/qsk389.mod

.MODEL QSK389 NJF (VTO=-2 BETA=20M LAMBDA=600U RD=7 RS=6.3 IS=1.58F PB=1 FC=.5 CGS=19.5P CGD=5.5P)
