* SST4416
* jfet/njf/sst4416.mod

.MODEL SST4416 NJF (VTO=-3.257562 BETA=1.155259m LAMBDA=1m IS=10f RS=34.530185 CGD=1.721976p CGS=1.483013p PB=2.900475 KF=2.357169E-018 AF=498.967622m)
