* TIS58
* jfet/njf/tis58.mod

.MODEL TIS58 NJF(Beta=1.46m Betatce=-500m Rd=1 Rs=1 Lambda=2.5m Vto=-1.921 Vtotc=-2.5m Is=33.57f Isr=322.4f N=1 Nr=2 Xti=3 Alpha=311.7 Vk=243.6 Cgd=1.6p M=362.2m Pb=1 Fc=500m Cgs=2.414p Kf=1.127e-002f Af=1)
