* U1899
* jfet/njf/u1899.mod

.MODEL U1899 NJF(Beta=7.646m Betatce=-500m Rd=1 Rs=1 Lambda=10m Vto=-2.131 Vtotc=-2.5m Is=205.2f Isr=1.988p N=1 Nr=2 Xti=3 Alpha=20.98u Vk=123.7 Cgd=7.94p M=406.9m Pb=1 Fc=500m Cgs=7.06p Kf=0.1028f Af=1)
