* U1898
* jfet/njf/u1898.mod

.MODEL U1898 NJF(Beta=5.108m Betatce=-500m Rd=1 Rs=1 Lambda=13m Vto=-3 Vtotc=-2.5m Is=205.2f Isr=1.988p N=1 Nr=2 Xti=3 Alpha=20.98u Vk=123.7 Cgd=7.94p M=406.9m Pb=1 Fc=500m Cgs=7.06p Kf=6.793e-002f Af=1)
