* U200
* jfet/njf/u200.mod

.MODEL U200 NJF(Beta=10.26m Betatce=-500m Rd=1 Rs=1 Lambda=6.236m Vto=-1.2 Vtotc=-2.5m Is=82.73f Isr=793f N=1 Nr=2 Xti=3 Alpha=15.64u Vk=147.8 Cgd=5.8p M=318.4m Pb=1 Fc=500m Cgs=11.9p Kf=603.6 Af=1)
