* U201
* jfet/njf/u201.mod

.MODEL U201 NJF(Beta=8m Betatce=-500m Rd=1 Rs=1 Lambda=8m Vto=-2.45 Vtotc=-2.5m Is=82.73f Isr=793f N=1 Nr=2 Xti=3 Alpha=15.64u Vk=147.8 Cgd=5.8p M=318.4m Pb=1 Fc=500m Cgs=11.9p Kf=0.44f Af=1)
