* U257
* jfet/njf/u257.mod

.MODEL U257 NJF(VTO=-2.475 BETA=2.203m BETATCE=-0.5 LAMBDA=12m RD=1 RS=1 CGS=3.65p CGD=2.822p PB=1 IS=94.35f XTI=3 AF=1 FC=0.5 N=1 NR=2 MFG=NSC)
