* U290
* jfet/njf/u290.mod

.MODEL U290 NJF(Beta=9m Betatce=-500m Rd=1 Rs=1 Lambda=50m Vto=-6.25 Vtotc=-2.5m Is=304.4f Isr=2.995p N=1 Nr=2 Xti=3 Alpha=699.7n Vk=59.97 Cgd=60p M=601.5m Pb=500m Fc=500m Cgs=60p Kf=8.75e-002f Af=1)
