* U291
* jfet/njf/u291.mod

.MODEL U291 NJF(Beta=15m Betatce=-500m Rd=1 Rs=1 Lambda=30m Vto=-3.6 Vtotc=-2.5m Is=304.4f Isr=2.995p N=1 Nr=2 Xti=3 Alpha=699.7n Vk=59.97 Cgd=60p M=601.5m Pb=500m Fc=500m Cgs=60p Kf=0.146f Af=1)
