* U308
* jfet/njf/u308.mod

.MODEL U308 NJF(VTO=-2.852 BETA=4.337m BETATCE=-0.5 LAMBDA=16m RD=1 RS=1 CGS=5p CGD=5p PB=1 IS=193.9f XTI=3 AF=1 FC=0.5 N=1 NR=2 MFG=NSC)
