* U309
* jfet/njf/u309.mod

.model U309 NJF(Beta=5.04m Betatce=-.5 Rd=1 Rs=1 Lambda=14m Vto=-2.026 Vtotc=-2.5m Is=193.9f Isr=1.881p N=1 Nr=2 Xti=3 Alpha=7.533u Vk=74.1 Cgd=5p M=.4647 Pb=1 Fc=.5 Cgs=5p Kf=69.01E-18 Af=1 mfg=Fairchild)
