* U310
* jfet/njf/u310.mod

.MODEL U310 NJF(VTO=-3.324 BETA=3.688m BETATCE=-0.5 LAMBDA=17m RD=1 RS=1 CGS=7.4p CGD=7.4p PB=1 IS=193.9f XTI=3 AF=1 FC=0.5 N=1 NR=2)

* MFG: NSC
