* U311
* jfet/njf/u311.mod

.MODEL U311 NJF(Beta=1.485m Betatce=-500m Rd=1 Rs=1 Lambda=2.887m Vto=-4.796 Vtotc=-2.5m Is=24.01f Isr=231.9f N=1 Nr=2 Xti=3 Alpha=16.46u Vk=55.46 Cgd=6.5p M=453.2m Pb=1 Fc=500m Cgs=6.5p Kf=5.765e-003f Af=1)
