* U312
* jfet/njf/u312.mod

.MODEL U312 NJF(Beta=1.242m Betatce=-500m Rd=1 Rs=1 Lambda=8m Vto=-3.679 Vtotc=-2.5m Is=101.9f Isr=977.5f N=1 Nr=2 Xti=3 Alpha=13.92u Vk=88.13 Cgd=2.6p M=344.8m Pb=1 Fc=500m Cgs=3.198p Kf=1.952e-002f Af=1)
