* U404
* jfet/njf/u404.mod

.MODEL U404 NJF(Beta=1.577m Betatce=-500m Rd=1 Rs=1 Lambda=10m Vto=-1.316 Vtotc=-2.5m Is=19.73f Isr=191.3f N=1 Nr=2 Xti=3 Alpha=68.56u Vk=212.2 Cgd=5.6p M=391.6m Pb=500m Fc=500m Cgs=6.044p Kf=4.592e-003f Af=1)
