* U412
* jfet/njf/u412.mod

.MODEL U412 NJF(Beta=801.3u Betatce=-500m Rd=1 Rs=1 Lambda=5m Vto=-1.866 Vtotc=-2.5m Is=224.2f Isr=2.192p N=1 Nr=2 Xti=3 Alpha=71.03u Vk=176.1 Cgd=3.03p M=491.1m Pb=1 Fc=500m Cgs=3.03p Kf=4.966e-002f Af=1)
