* U427
* jfet/njf/u427.mod

.MODEL U427 NJF(Beta=428.6u Betatce=-500m Rd=1 Rs=1 Lambda=4m Vto=-1.25 Vtotc=-2.5m Is=5.86f Isr=56.06f N=1 Nr=2 Xti=3 Alpha=81.65u Vk=190.4 Cgd=750f M=301m Pb=1 Fc=500m Cgs=1.7p Kf=0.1256f Af=1)
