* U430
* jfet/njf/u430.mod

.MODEL U430 NJF(Beta=5.412m Betatce=-500m Rd=1 Rs=1 Lambda=15m Vto=-1.952 Vtotc=-2.5m Is=24.01f Isr=231.9f N=1 Nr=2 Xti=3 Alpha=16.46u Vk=55.46 Cgd=5.85p M=500m Pb=1 Fc=500m Cgs=6.49p Kf=3.204e-002f Af=1)
