* U440
* jfet/njf/u440.mod

.MODEL U440 NJF(VTO=-2.839 BETA=1.978m BETATCE=-0.5 LAMBDA=30m RD=1 RS=1 CGS=2.47p CGD=2.11p PB=1 IS=36.18f XTI=3 AF=1 FC=0.5 N=1 NR=2)

* MFG: NSC
