* U443
* jfet/njf/u443.mod

.MODEL U443 NJF(Beta=1.978m Betatce=-500m Rd=1 Rs=1 Lambda=30m Vto=-2.839 Vtotc=-2.5m Is=36.18f Isr=346.4f N=1 Nr=2 Xti=3 Alpha=105u Vk=107 Cgd=2.11p M=333m Pb=1 Fc=500m Cgs=2.47p Kf=2.788e-002f Af=1)
