* 2N2608
* jfet/pjf/2n2608.mod

.MODEL 2N2608 PJF(VTO=-2.45 BETA=423.6u BETATCE=-0.5 LAMBDA=15m RD=1 RS=1 CGS=8.37p CGD=6.7p PB=1 IS=222.4f XTI=3 AF=1 FC=0.5 N=1 NR=2 MFG=NSC)
