* 2N4381
* jfet/pjf/2n4381.mod

.MODEL 2N4381 PJF(VTO=-1.8 BETA=2.658m BETATCE=-0.5 LAMBDA=15m RD=1 RS=1 CGS=8.26p CGD=6.61p PB=1 IS=222.4f XTI=3 AF=1 FC=0.5 N=1 NR=2 MFG=NSC)
