* 2N5018
* jfet/pjf/2n5018.mod

.MODEL 2N5018 PJF(VTO=-4.15 BETA=772.5u BETATCE=-0.5 LAMBDA=40m RD=1 RS=1 CGS=9p CGD=6.5p PB=1 IS=461.5f XTI=3 AF=1 FC=0.5 N=1 NR=2)

* MFG: NSC
