* 2N5020
* jfet/pjf/2n5020.mod

.MODEL 2N5020 PJF(VTO=-0.8406 BETA=1.004m BETATCE=-0.5 LAMBDA=10m RD=1 RS=1 CGS=10.68p CGD=8.55p PB=1 IS=222.4f XTI=3 AF=1 FC=0.5 N=1 NR=2)

* MFG: NSC
