* 2N5021
* jfet/pjf/2n5021.mod

.MODEL 2N5021 PJF(VTO=-0.9996 BETA=2.658m BETATCE=-0.5 LAMBDA=12m RD=1 RS=1 CGS=10.68p CGD=8.55p PB=1 IS=222.4f XTI=3 AF=1 FC=0.5 N=1 NR=2 MFG=NSC)
