* 2N5114
* jfet/pjf/2n5114.mod

.model 2N5114 PJF(Beta=510.2u Betatce=-.5 Rd=1 Rs=1 Lambda=40m Vto=-8.095 Vtotc=-2.5m Is=461.5f Isr=4.402p N=1 Nr=2 Xti=3 Alpha=32.54u Vk=393.2 Cgd=6.5p M=.2789 Pb=1 Fc=.5 Cgs=9p Kf=32.96E-18 Af=1)

* mfg: Fairchild
