* 2N5116
* jfet/pjf/2n5116.mod

.MODEL 2N5116 PJF(VTO=-2.373 BETA=1.71m BETATCE=-0.5 LAMBDA=25m RD=1 RS=1 CGS=9p CGD=6.5p PB=1 IS=461.5f XTI=3 AF=1 FC=0.5 N=1 NR=2)

* MFG: NSC
