* 2SJ103BL
* jfet/pjf/2sj103bl.mod

.MODEL 2SJ103BL PJF (BETA=898.438U IS=10F RD=200 CGD=11.9398P CGS=14.4P)
