* 2SJ109
* jfet/pjf/2sj109.mod

.model 2sj109 PJF(Beta=39.21m Rs=0 Rd=0 Betatce=-.5 Lambda=4.338m Vto=-.5762 Vtotc=-2.5m Cgd=67.64p M=.2562 Pb=.3905 Fc=.5 Cgs=61.12p Isr=158.7p Nr=2 Is=15.87p N=1 Xti=3 Alpha=10u Vk=100 Kf=109.9E-18 Af=1)
