* J174
* jfet/pjf/j174.mod

.MODEL J174 PJF(VTO=-7.1507 BETA=1.24461m BETATCE=-0.5 LAMBDA=2.01968E-2 RD=3.95403 RS=3.95403 CGS=1.58000E-11 CGD=1.88000E-11 PB=3.72072E-1 IS=9.72750E-16 XTI=3 AF=1 FC=0.5 N=1 NR=2 MFG=PHILIPS)
