* J175
* jfet/pjf/j175.mod

.MODEL J175 PJF(VTO=-3.6320 BETA=2.84523m BETATCE=-0.5 LAMBDA=2.00000E-2 RD=1.17482E1 RS=1.17482E1 CGS=1.57000E-11 CGD=1.70000E-11 PB=3.19450E-1 IS=7.74158E-16 XTI=3 AF=1 FC=0.5 N=1 NR=2 MFG=PHILIPS)
