* J176
* jfet/pjf/j176.mod

.MODEL J176 PJF(VTO=-2.3000 BETA=2.89414m BETATCE=-0.5 LAMBDA=2.00000E-2 RD=1.02409 RS=1.02409 CGS=1.00000E-11 CGD=1.05000E-11 PB=7.05860E-1 IS=4.51393E-16 XTI=3 AF=1 FC=0.5 N=1 NR=2)

* MFG: PHILIPS
