* J177
* jfet/pjf/j177.mod

.MODEL J177 PJF(VTO=-1.8000 BETA=3.37432m BETATCE=-0.5 LAMBDA=2.41676E-2 RD=1.45880 RS=1.45880 CGS=8.90000p CGD=1.02500E-11 PB=6.94243E-1 IS=7.27555E-16 XTI=3 AF=1 FC=0.5 N=1 NR=2 MFG=PHILIPS)
