* J270
* jfet/pjf/j270.mod

.MODEL J270 PJF(Beta=4.187m Betatce=-500m Rd=1 Rs=1 Lambda=16.36m Vto=-1.03 Vtotc=-2.5m Is=461.5f Isr=4.402p N=1 Nr=2 Xti=3 Alpha=32.54u Vk=393.2 Cgd=10.83p M=278.9m Pb=1 Fc=500m Cgs=15p Kf=1.624f Af=1)
