* J271
* jfet/pjf/j271.mod

.MODEL J271 PJF(Beta=1.6m Betatce=-500m Rd=1 Rs=1 Lambda=25m Vto=-2.519 Vtotc=-2.5m Is=461.5f Isr=4.402p N=1 Nr=2 Xti=3 Alpha=32.54u Vk=393.2 Cgd=10.83p M=278.9m Pb=1 Fc=500m Cgs=15p Kf=0.6206f Af=1)
