* J2N2609
* jfet/pjf/j2n2609.mod

.MODEL J2N2609 PJF(Beta=3.2m Betatce=-500m Rd=1 Rs=1 Lambda=18.5m Vto=-1.408 Vtotc=-2.5m Is=461.5f Isr=4.402p N=1 Nr=2 Xti=3 Alpha=32.54u Vk=393.2 Cgd=6.5p M=278.9m Pb=1 Fc=500m Cgs=9p Kf=0.2062f Af=1)
