* J2N3820
* jfet/pjf/j2n3820.mod

.MODEL J2N3820 PJF(Beta=1.271m Betatce=-500m Rd=1 Rs=1 Lambda=40m Vto=-2.5 Vtotc=-2.5m Is=222.4f Isr=2.177p N=1 Nr=2 Xti=3 Alpha=29.8u Vk=400.1 Cgd=13.27p M=482.2m Pb=1 Fc=500m Cgs=16.58p Kf=0.9166f Af=1)
