* J2N3331
* jfet/pjf/j2n3331.mod

.MODEL J2N3331 PJF(Beta=380.2u Betatce=-500m Rd=1 Rs=1 Lambda=25m Vto=-4.449 Vtotc=-2.5m Is=222.4f Isr=2.177p N=1 Nr=2 Xti=3 Alpha=29.8u Vk=400.1 Cgd=7.96p M=482.2m Pb=1 Fc=500m Cgs=9.94p Kf=0.4223f Af=1)
