* J2N3329
* jfet/pjf/j2n3329.mod

.MODEL J2N3329 PJF(Beta=456.9u Betatce=-500m Rd=1 Rs=1 Lambda=12m Vto=-2.114 Vtotc=-2.5m Is=222.4f Isr=2.177p N=1 Nr=2 Xti=3 Alpha=29.8u Vk=400.1 Cgd=7.96p M=482.2m Pb=1 Fc=500m Cgs=9.94p Kf=0.3107f Af=1)
