* J2N4381
* jfet/pjf/j2n4381.mod

.MODEL J2N4381 PJF(Beta=2.658m Betatce=-500m Rd=1 Rs=1 Lambda=15m Vto=-1.8 Vtotc=-2.5m Is=222.4f Isr=2.177p N=1 Nr=2 Xti=3 Alpha=29.8u Vk=400.1 Cgd=6.61p M=482.2m Pb=1 Fc=500m Cgs=8.26p Kf=1.17f Af=1)
