* J2N5018
* jfet/pjf/j2n5018.mod

.MODEL J2N5018 PJF(Beta=772.5u Betatce=-500m Rd=1 Rs=1 Lambda=40m Vto=-4.15 Vtotc=-2.5m Is=461.5f Isr=4.402p N=1 Nr=2 Xti=3 Alpha=32.54u Vk=393.2 Cgd=6.5p M=278.9m Pb=1 Fc=500m Cgs=9p Kf=4.993e-002f Af=1)
