* J2N5115
* jfet/pjf/j2n5115.mod

.MODEL J2N5115 PJF(Beta=1.031m Betatce=-500m Rd=1 Rs=1 Lambda=32m Vto=-4.896 Vtotc=-2.5m Is=461.5f Isr=4.402p N=1 Nr=2 Xti=3 Alpha=32.54u Vk=393.2 Cgd=6.5p M=278.9m Pb=1 Fc=500m Cgs=9p Kf=6.661e-002f Af=1)
