* J2N5114
* jfet/pjf/j2n5114.mod

.MODEL J2N5114 PJF(Beta=510.2u Betatce=-500m Rd=1 Rs=1 Lambda=40m Vto=-8.095 Vtotc=-2.5m Is=461.5f Isr=4.402p N=1 Nr=2 Xti=3 Alpha=32.54u Vk=393.2 Cgd=6.5p M=278.9m Pb=1 Fc=500m Cgs=9p Kf=3.296e-002f Af=1)
