* J2N5461
* jfet/pjf/j2n5461.mod

.MODEL J2N5461 PJF(Beta=1.699m Betatce=-500m Rd=1 Rs=1 Lambda=23m Vto=-1.883 Vtotc=-2.5m Is=222.4f Isr=2.177p N=1 Nr=2 Xti=3 Alpha=29.8u Vk=400.1 Cgd=2.34p M=482.2m Pb=1 Fc=500m Cgs=2.92p Kf=1.055f Af=1)
