* J2N5116
* jfet/pjf/j2n5116.mod

.MODEL J2N5116 PJF(Beta=1.71m Betatce=-500m Rd=1 Rs=1 Lambda=25m Vto=-2.373 Vtotc=-2.5m Is=461.5f Isr=4.402p N=1 Nr=2 Xti=3 Alpha=32.54u Vk=393.2 Cgd=6.5p M=278.9m Pb=1 Fc=500m Cgs=9p Kf=0.1104f Af=1)
