* J2N5020
* jfet/pjf/j2n5020.mod

.MODEL J2N5020 PJF(Beta=1.004m Betatce=-500m Rd=1 Rs=1 Lambda=10m Vto=-840.6m Vtotc=-2.5m Is=222.4f Isr=2.177p N=1 Nr=2 Xti=3 Alpha=29.8u Vk=400.1 Cgd=8.55p M=482.2m Pb=1 Fc=500m Cgs=10.68p Kf=0.5567f Af=1)
