* KP103E
* jfet/pjf/kp103e.mod

.MODEL KP103E PJF VTO=-0.8 BETA=0.0008 LAMBDA=0.02 RD=40 RS=7 IS=1.2195e-11 CGD=26.5P CGS=12P PB=1 B=1 KF=1e-18 AF=0.7 FC=0.5 MFG=USSR
