* KP103M
* jfet/pjf/kp103m.mod

.MODEL KP103M PJF VTO=-3.2 BETA=0.0005 LAMBDA=0.02 RD=40 RS=7 IS=1.2195e-11 CGD=26.5P CGS=12P PB=1 B=1 KF=1e-18 AF=0.7 FC=0.5

* MFG: USSR
