* MPF2608
* jfet/pjf/mpf2608.mod

.MODEL MPF2608 PJF(Beta=423.6u Betatce=-500m Rd=1 Rs=1 Lambda=15m Vto=-2.45 Vtotc=-2.5m Is=222.4f Isr=2.177p N=1 Nr=2 Xti=3 Alpha=29.8u Vk=400.1 Cgd=6.7p M=482.2m Pb=1 Fc=500m Cgs=8.37p Kf=0.2864f Af=1)
