* P1087
* jfet/pjf/p1087.mod

.MODEL P1087 PJF(Beta=1.775m Betatce=-500m Rd=1 Rs=1 Lambda=24m Vto=-2.229 Vtotc=-2.5m Is=461.5f Isr=4.402p N=1 Nr=2 Xti=3 Alpha=32.54u Vk=393.2 Cgd=6.5p M=278.9m Pb=1 Fc=500m Cgs=9p Kf=0.1145f Af=1)
