* PN4342
* jfet/pjf/pn4342.mod

.MODEL PN4342 PJF(Beta=2.006m Betatce=-500m Rd=1 Rs=1 Lambda=30m Vto=-1.988 Vtotc=-2.5m Is=222.4f Isr=2.177p N=1 Nr=2 Xti=3 Alpha=29.8u Vk=400.1 Cgd=6.33p M=482.2m Pb=1 Fc=500m Cgs=7.91p Kf=0.7022f Af=1)
