* PN4360
* jfet/pjf/pn4360.mod

.MODEL PN4360 PJF(Beta=4.032m Betatce=-500m Rd=1 Rs=1 Lambda=32m Vto=-2.057 Vtotc=-2.5m Is=222.4f Isr=2.177p N=1 Nr=2 Xti=3 Alpha=29.8u Vk=400.1 Cgd=6.33p M=482.2m Pb=1 Fc=500m Cgs=7.91p Kf=6.295f Af=1)
