* PN5033
* jfet/pjf/pn5033.mod

.MODEL PN5033 PJF(Beta=1.57m Betatce=-500m Rd=1 Rs=1 Lambda=12m Vto=-1.105 Vtotc=-2.5m Is=222.4f Isr=2.177p N=1 Nr=2 Xti=3 Alpha=29.8u Vk=400.1 Cgd=8.16p M=482.2m Pb=1 Fc=500m Cgs=10.19p Kf=0.8156f Af=1)
