* U305
* jfet/pjf/u305.mod

.MODEL U305 PJF(Beta=1.8m Betatce=-500m Rd=1 Rs=1 Lambda=3.333m Vto=-4.014 Vtotc=-2.5m Is=461.5f Isr=4.402p N=1 Nr=2 Xti=3 Alpha=32.54u Vk=393.2 Cgd=16.15p M=413.4m Pb=1 Fc=500m Cgs=16.5p Kf=0.1748f Af=1)
