* U306
* jfet/pjf/u306.mod

.MODEL U306 PJF(Beta=2.5m Betatce=-500m Rd=1 Rs=1 Lambda=4.204m Vto=-2.062 Vtotc=-2.5m Is=461.5f Isr=4.402p N=1 Nr=2 Xti=3 Alpha=32.54u Vk=393.2 Cgd=16.15p M=413.4m Pb=1 Fc=500m Cgs=16.5p Kf=0.2447f Af=1)
