* 10BQ100
* diode/undefined/10bq100.mod

.MODEL 10BQ100 d IS=3.8291n RS=100 N=2 EG=0.600259 XTI=0.5 BV=100 IBV=0.0001 CJO=9.19104e-11 VJ=1.5 M=0.527626 FC=0.5 TT=1n
