* 10CTQ150
* diode/undefined/10ctq150.mod

.MODEL 10CTQ150 d IS=1.63362e-06 RS=0.0221615 N=2 EG=0.6 XTI=0.5 BV=150 IBV=5e-05 CJO=4.60092e-10 VJ=0.759589 M=0.500823 FC=0.5 TT=1n
