* 10MQ100N
* diode/undefined/10mq100n.mod

.MODEL 10MQ100N d IS=1e-07 RS=0.0807081 N=1.65612 EG=0.6 XTI=0.5 BV=100 IBV=0.00025 CJO=8.62759e-11 VJ=0.4 M=0.43322 FC=0.5 TT=1n
