* 10TQ045
* diode/undefined/10tq045.mod

.MODEL 10TQ045 d IS=9.81804e-08 RS=0.00739225 N=0.993075 EG=0.6 XTI=0.5 BV=45 IBV=0.0001 CJO=1.42434n VJ=1.5 M=0.479175 FC=0.5 TT=0
