* 120LQ045
* diode/undefined/120lq045.mod

.MODEL 120LQ045 d IS=5.90313n RS=0.00455345 N=0.737625 EG=1.3 XTI=0.5 BV=45 IBV=0.0001 CJO=1.29866e-08 VJ=0.462963 M=0.473356 FC=0.5 TT=1n
