* 120LQ100
* diode/undefined/120lq100.mod

.MODEL 120LQ100 d IS=0.000544678 RS=0.00277937 N=1.83305 EG=0.6 XTI=0.5 BV=100 IBV=0.0001 CJO=6.48813n VJ=0.4 M=0.384061 FC=0.5 TT=1n
