* 12CGQ150
* diode/undefined/12cgq150.mod

.MODEL 12CGQ150 d IS=2.4863e-05 RS=0.0252929 N=2 EG=1.3 XTI=0.5 BV=150 IBV=0.0001 CJO=6.35956e-10 VJ=1.5 M=0.562241 FC=0.5 TT=0
