* 12CTQ045
* diode/undefined/12ctq045.mod

.MODEL 12CTQ045 d IS=5.30534n RS=0.014271 N=0.891364 EG=0.6 XTI=0.5 BV=45 IBV=0.0001 CJO=7.11199e-10 VJ=1.5 M=0.484798 FC=0.5 TT=0
