* 12CWQ04FN
* diode/undefined/12cwq04fn.mod

.MODEL 12CWQ04FN d IS=1.05439e-06 RS=0.0173547 N=1.07052 EG=0.6 XTI=0.5 BV=40 IBV=0.0001 CJO=1.51803n VJ=0.4 M=0.516518 FC=0.5 TT=1n
