* 15CGQ100
* diode/undefined/15cgq100.mod

.MODEL 15CGQ100 d IS=8.74079e-05 RS=0.0180811 N=2 EG=1.3 XTI=3.01057 BV=100 IBV=0.0001 CJO=1.08792n VJ=0.846153 M=0.498115 FC=0.5 TT=0
