* 15ETH06
* diode/undefined/15eth06.mod

.MODEL 15ETH06 d IS=2.2756e-08 RS=0.0177161 N=2 EG=0.6 XTI=0.500021 BV=600 IBV=0.0001 CJO=1.6387e-10 VJ=0.71953 M=0.37991 FC=0.5 TT=1n
