* 15LJQ100
* diode/undefined/15ljq100.mod

.MODEL 15LJQ100 d IS=6.15446e-05 RS=0.0153982 N=1.88088 EG=1.3 XTI=3.60437 BV=100 IBV=0.0001 CJO=1.08848n VJ=0.4 M=0.371667 FC=0.5 TT=1n
