* 160CMQ045
* diode/undefined/160cmq045.mod

.MODEL 160CMQ045 d IS=1.34755e-11 RS=0.00275782 N=0.5 EG=0.6 XTI=0.5 BV=1000 IBV=0.0001 CJO=4.75072n VJ=1.5 M=0.542103 FC=0.5 TT=1n
