* 16CYQ150C
* diode/undefined/16cyq150c.mod

.MODEL 16CYQ150C d IS=1.71508e-05 RS=0.0265393 N=2 EG=1.3 XTI=2.78486 BV=150 IBV=0.0001 CJO=9.98822e-10 VJ=0.4 M=0.484035 FC=0.5 TT=1n
