* 16SYQ060C
* diode/undefined/16syq060c.mod

.MODEL 16SYQ060C d IS=1.66638e-08 RS=0.0183025 N=0.65508 EG=0.6 XTI=0.5 BV=60 IBV=0.0001 CJO=6.83071n VJ=0.4 M=0.497741 FC=0.5 TT=1n
