* 16YQ150C
* diode/undefined/16yq150c.mod

.MODEL 16YQ150C d IS=2.63267e-05 RS=0.0169253 N=2 EG=1.3 XTI=2.95537 BV=150 IBV=0.0001 CJO=1.74923n VJ=0.4 M=0.470085 FC=0.5 TT=1n
