* 16YQ045C
* diode/undefined/16yq045c.mod

.MODEL 16YQ045C d IS=4.98611e-07 RS=0.0130029 N=0.98534 EG=1.3 XTI=2.9591 BV=45 IBV=0.0001 CJO=6.92544n VJ=0.537519 M=0.490188 FC=0.5 TT=1n
