* 18TQ045
* diode/undefined/18tq045.mod

.MODEL 18TQ045 d IS=1.97424e-13 RS=0.00628392 N=0.530234 EG=0.6 XTI=0.05 BV=45 IBV=0.0001 CJO=8.24939n VJ=1.5 M=0.462568 FC=0.5 TT=0
