* 1N1206C
* diode/undefined/1n1206c.mod

.MODEL 1N1206C D ( IS=9.94e-06 RS=0.00653 CJO=4.528e-10 VJ=0.5189 TT=7.237e-07 M=0.4269 BV=100 N=2 EG=1.11 XTI=3 FC=0.5 IBV=0.0001
