* 1N4106
* diode/undefined/1n4106.mod

.MODEL 1N4106 D (BV=12 CJO=107.101P IBV=50U IS=5.72393F M=501.929M RS=100 VJ=750M)
