* 1N5806US
* diode/undefined/1n5806us.mod

.model 1N5806US D(Is=13.14n N=1.607 Rs=28.6m Ikf=.336 Xti=3 Eg=1.11 Cjo=60.7p Isr=168.5n Bv=160 Ibv=100u Tt=36.1n Vpk=150 Iave=5 mfg=Microsemi)
