* 200TD120U
* diode/undefined/200td120u.mod

.MODEL 200TD120U d IS=1.4976e-11 RS=0.007312 N=2 EG=0.6 XTI=4 BV=1200 IBV=0.0001 CJO=1.8n VJ=0.4 M=0.45418 FC=0.5 TT=1n
