* 20CJQ030
* diode/undefined/20cjq030.mod

.MODEL 20CJQ030 d IS=7.45927n RS=0.0632601 N=0.89875 EG=1.3 XTI=4 BV=30 IBV=0.0001 CJO=2.9346e-10 VJ=0.4 M=0.427299 FC=0.5 TT=0
