* 22GQ100
* diode/undefined/22gq100.mod

.MODEL 22GQ100 d IS=5.91885e-14 RS=0.0197462 N=0.527335 EG=0.6 XTI=0.5 BV=100 IBV=0.0001 CJO=4.67713n VJ=0.4 M=0.513011 FC=0.5 TT=0
