* 30CLJQ045
* diode/undefined/30cljq045.mod

.MODEL 30CLJQ045 d IS=6.17168e-07 RS=0.0202821 N=1.08809 EG=1.3 XTI=3.29182 BV=45 IBV=0.0001 CJO=1.24067n VJ=0.408846 M=0.481835 FC=0.5 TT=0
