* 30CTH02
* diode/undefined/30cth02.mod

.MODEL 30CTH02 d IS=1e-15 RS=0.01 N=0.77819 EG=1.3 XTI=4 BV=200 IBV=0.0001 CJO=4.06302e-10 VJ=0.4 M=0.3385 FC=0.5 TT=1e-07
