* 30CTQ060S
* diode/undefined/30ctq060s.mod

.MODEL 30CTQ060S d IS=0.001 RS=0.00753336 N=2.31312 EG=0.510131 XTI=0.497683 BV=60 IBV=0.0001 CJO=1.18606n VJ=1.5 M=0.494139 FC=0.5 TT=1n
