* 30EPH06
* diode/undefined/30eph06.mod

.MODEL 30EPH06 d IS=3.75476e-10 RS=0.0182211 N=2 EG=0.626585 XTI=0.500695 BV=600 IBV=0.0001 CJO=3.68339e-10 VJ=1.27928 M=0.404368 FC=0.5 TT=1.23518e-08
