* 30LJQ150
* diode/undefined/30ljq150.mod

.MODEL 30LJQ150 d IS=4.79361e-06 RS=0.0108545 N=2 EG=1.3 XTI=0.502388 BV=150 IBV=0.0001 CJO=9.09704e-10 VJ=0.4 M=0.462283 FC=0.5 TT=0
