* 30LJQ100
* diode/undefined/30ljq100.mod

.MODEL 30LJQ100 d IS=2.8036e-05 RS=0.0100392 N=2 EG=0.6 XTI=0.5 BV=100 IBV=0.0001 CJO=1.41531n VJ=0.4 M=0.47998 FC=0.5 TT=0
