* 30LJQ045
* diode/undefined/30ljq045.mod

.MODEL 30LJQ045 d IS=3.01029e-08 RS=0.00758833 N=0.877045 EG=0.6 XTI=0.5 BV=45 IBV=0.0001 CJO=2.65012n VJ=1.18451 M=0.511241 FC=0.5 TT=0
