* 30SCLJQ030
* diode/undefined/30scljq030.mod

.MODEL 30SCLJQ030 d IS=3.04923e-06 RS=0.0123656 N=1.0506 EG=1.3 XTI=2.9944 BV=30 IBV=0.0001 CJO=1.61571n VJ=0.442068 M=0.472758 FC=0.5 TT=0
