* 30SLJQ030
* diode/undefined/30sljq030.mod

.MODEL 30SLJQ030 d IS=2.08649e-07 RS=0.00676047 N=0.86202 EG=0.6 XTI=0.5 BV=30 IBV=0.0001 CJO=5.85622n VJ=0.4 M=0.485403 FC=0.5 TT=0
