* 32CTQ030H
* diode/undefined/32ctq030h.mod

.MODEL 32CTQ030H d IS=1e-15 RS=0.01 N=0.5 EG=1.07785 XTI=4 BV=30 IBV=0.00175 CJO=2.11811n VJ=1.5 M=0.499425 FC=0.5 TT=0
