* 32CTQ030
* diode/undefined/32ctq030.mod

.MODEL 32CTQ030 d IS=2.21746e-11 RS=0.01 N=0.5 EG=0.6 XTI=2.38672 BV=30 IBV=0.00175 CJO=2.11811n VJ=1.5 M=0.499425 FC=0.5 TT=0
