* 35CGQ100
* diode/undefined/35cgq100.mod

.MODEL 35CGQ100 d IS=1e-15 RS=0.01681 N=0.5 EG=0.608064 XTI=0.500208 BV=100 IBV=0.0001 CJO=2.00581n VJ=1.24629 M=0.513186 FC=0.5 TT=1n
