* 35CLQ045
* diode/undefined/35clq045.mod

.MODEL 35CLQ045 d IS=2.76847e-07 RS=0.00674255 N=1.0155 EG=1.3 XTI=4 BV=45 IBV=0.0001 CJO=2.76301n VJ=1.01389 M=0.489865 FC=0.5 TT=0
