* 40CPQ050
* diode/undefined/40cpq050.mod

.MODEL 40CPQ050 d IS=2.4532e-11 RS=0.0071 N=0.5 EG=0.6 XTI=0.5 BV=1000 IBV=0.0001 CJO=2.49633n VJ=1.5 M=0.483473 FC=0.5 TT=1n
