* 40CTQ045
* diode/undefined/40ctq045.mod

.MODEL 40CTQ045 d IS=3.357e-08 RS=0.01 N=0.5 EG=1.04653 XTI=0.957426 BV=45 IBV=0.00025 CJO=1.51919e-08 VJ=0.4 M=0.704417 FC=0.5 TT=1n
