* 40EPS12
* diode/undefined/40eps12.mod

.MODEL 40EPS12 d IS=1e-15 RS=0.00426912 N=0.926332 EG=0.6 XTI=0.5 BV=1200 IBV=0.0001 CJO=1e-11 VJ=0.7 M=0.5 FC=0.5 TT=1n
