* 50WQ06FN
* diode/undefined/50wq06fn.mod

.MODEL 50WQ06FN d IS=1e-15 RS=0.0205874 N=0.5 EG=1.3 XTI=0.5 BV=1000 IBV=0.0001 CJO=8.86241e-10 VJ=0.899259 M=0.559144 FC=0.5 TT=1n
