* 5EQ100
* diode/undefined/5eq100.mod

.MODEL 5EQ100 d IS=8.77154e-05 RS=0.0202145 N=2 EG=0.815312 XTI=3.9995 BV=100 IBV=0.005 CJO=1.06148n VJ=0.79108 M=0.475554 FC=0.5 TT=0
