* 60LQ100
* diode/undefined/60lq100.mod

.MODEL 60LQ100 d IS=0.001 RS=0.0026041 N=1.79037 EG=0.6 XTI=0.5 BV=100 IBV=0.0001 CJO=4.12278n VJ=0.4 M=0.477205 FC=0.5 TT=0
