* 60LQ045
* diode/undefined/60lq045.mod

.MODEL 60LQ045 d IS=1e-07 RS=0.00252226 N=0.914851 EG=0.6 XTI=0.5 BV=45 IBV=0.0001 CJO=6.87655n VJ=0.4 M=0.408789 FC=0.5 TT=0
