* 6CWQ04FN
* diode/undefined/6cwq04fn.mod

.MODEL 6CWQ04FN d IS=7.48131e-13 RS=0.0287717 N=0.540086 EG=0.6 XTI=0.5 BV=40 IBV=0.0001 CJO=5.09354e-10 VJ=0.795245 M=0.513157 FC=0.5 TT=1n
