* 6CWQ10FN
* diode/undefined/6cwq10fn.mod

.MODEL 6CWQ10FN d IS=1.92816e-06 RS=0.0227346 N=2 EG=0.6 XTI=0.5 BV=100 IBV=0.001 CJO=2.9028e-10 VJ=0.4 M=0.453836 FC=0.5 TT=1n
