* 75LQ150
* diode/undefined/75lq150.mod

.MODEL 75LQ150 d IS=6.47147e-05 RS=0.00457083 N=2 EG=0.6 XTI=0.5 BV=150 IBV=0.0001 CJO=3.61923n VJ=0.4 M=0.479638 FC=0.5 TT=0
