* 75SLQ030
* diode/undefined/75slq030.mod

.MODEL 75SLQ030 d IS=1.05375e-05 RS=0.00235787 N=0.994404 EG=1.3 XTI=0.5 BV=30 IBV=0.0001 CJO=1.14291e-08 VJ=0.4 M=0.46991 FC=0.5 TT=0
