* 80CLQ150
* diode/undefined/80clq150.mod

.MODEL 80CLQ150 d IS=3.00965e-05 RS=0.00595685 N=2 EG=1.3 XTI=3.40773 BV=150 IBV=0.0001 CJO=1.45286n VJ=0.4 M=0.415374 FC=0.5 TT=0
