* 80EBU02
* diode/undefined/80ebu02.mod

.MODEL 80ebu02 d IS=6.10239u RS=0.00151476 N=2 EG=0.1 XTI=0.0005 BV=200 IBV=50u CJO=1.77691n VJ=0.4 M=0.495417 FC=0.5 TT=1n
