* 8ETH06
* diode/undefined/8eth06.mod

.MODEL 8ETH06 d IS=6.92843e-10 RS=0.121017 N=2 EG=1.3 XTI=0.528448 BV=600 IBV=0.0001 CJO=1.56732e-10 VJ=0.4 M=0.404011 FC=0.5 TT=1n
