* 8EWS10
* diode/undefined/8ews10.mod

.MODEL 8EWS10 d IS=1.17378e-07 RS=0.0104837 N=2 EG=1.29966 XTI=3.06473 BV=1000 IBV=0.0001 CJO=1e-11 VJ=0.7 M=0.5 FC=0.5 TT=1n
