* 90CLQ100
* diode/undefined/90clq100.mod

.MODEL 90CLQ100 d IS=0.00032603 RS=0.00931445 N=2 EG=1.3 XTI=0.5 BV=100 IBV=0.0001 CJO=3.07785n VJ=0.4 M=0.479989 FC=0.5 TT=0
