* BAS516
* diode/undefined/bas516.mod

.MODEL BAS516 D IS=2.9891n N=1.9303 RS=0.78115 IKF=0.085491m CJO=383.41f M=.1 VJ=9.99 ISR=6.8038n NR=4.9950 BV=130.38 IBV=10 TT=3.0297n
