* D_NJL3281
* diode/undefined/d_njl3281.mod

.model D_njl3281 D IS=5.17122e-08 RS=0.0324668 N=1.78236 EG=1.12011 XTI=0.5 BV=200 IBV=2u CJO=5.59229e-11 VJ=0.4 M=0.346657 FC=0.5 TT=2.59685e-08
