* DX_B520C
* diode/undefined/dx_b520c.mod

.MODEL DX_B520C D ( IS=0.3m RS=10m BV=20 IBV=500u Ikf=1 CJO=500p M=0.333 N=1.5 TT=7.20n )
