* HFA08TB60
* diode/undefined/hfa08tb60.mod

.MODEL HFA08TB60 d IS=2.88464e-12 RS=0.0305193 N=2 EG=1.29955 XTI=0.521907 BV=600 IBV=0.0001 CJO=1.37419e-10 VJ=0.4 M=0.418241 FC=0.5 TT=1n
