* HFA06TB120
* diode/undefined/hfa06tb120.mod

.MODEL HFA06TB120 d IS=0.001 RS=0.110401 N=13.6537 EG=0.6 XTI=0.5 BV=1200 IBV=0.0001 CJO=1.1896e-10 VJ=0.4 M=0.430052 FC=0.5 TT=5.54521e-08
