* HFA15PB60
* diode/undefined/hfa15pb60.mod

.MODEL HFA15PB60 d IS=7.68701e-11 RS=0.020004 N=2 EG=0.6 XTI=0.5 BV=600 IBV=0.0001 CJO=2.94798e-10 VJ=0.7742 M=0.447397 FC=0.5 TT=1n
