* HFA140NH60R
* diode/undefined/hfa140nh60r.mod

.MODEL HFA140NH60R d IS=2.34895e-06 RS=0.0025 N=2 EG=1.3 XTI=0.5 BV=1000 IBV=0.0001 CJO=4.67077n VJ=0.4 M=0.467713 FC=0.5 TT=1n
