* HFA30TA60CS
* diode/undefined/hfa30ta60cs.mod

.MODEL HFA30TA60CS d IS=0.001 RS=0.0395 N=2 EG=1.282 XTI=3.02161 BV=600 IBV=0.0001 CJO=2.73039e-10 VJ=1.5 M=0.451856 FC=0.5 TT=2.42596e-08
