* HFA30PA60C
* diode/undefined/hfa30pa60c.mod

.MODEL HFA30PA60C d IS=0.000690394 RS=0.0117897 N=6.00599 EG=0.6 XTI=0.5 BV=600 IBV=0.0001 CJO=4.84089e-11 VJ=4720.92 M=0.9 FC=0.5 TT=1n
