* HFA80NC40CSL
* diode/undefined/hfa80nc40csl.mod

.MODEL HFA80NC40CSL d IS=2.37825e-07 RS=0.01 N=2 EG=1.04775 XTI=2.97132 BV=400 IBV=0.0001 CJO=1.50848n VJ=0.4 M=0.453789 FC=0.5 TT=1n
