* HFB16HY20C
* diode/undefined/hfb16hy20c.mod

.MODEL HFB16HY20C d IS=3.69563e-06 RS=0.0218406 N=2 EG=0.6 XTI=0.500087 BV=200 IBV=0.0001 CJO=1.17122n VJ=0.4 M=0.337217 FC=0.5 TT=1n
