* HFB25HJ20
* diode/undefined/hfb25hj20.mod

.MODEL HFB25HJ20 d IS=5.77437e-07 RS=0.00510648 N=2 EG=1.3 XTI=2.94572 BV=200 IBV=0.0001 CJO=4.64754e-10 VJ=0.4 M=0.332685 FC=0.5 TT=1n
