* HFB20HJ20C
* diode/undefined/hfb20hj20c.mod

.MODEL HFB20HJ20C d IS=2.31797e-07 RS=0.0180424 N=2 EG=1.3 XTI=3.00177 BV=200 IBV=0.0001 CJO=1.25047e-10 VJ=0.4 M=0.329663 FC=0.5 TT=1n
