* HFB35HB20C
* diode/undefined/hfb35hb20c.mod

.MODEL HFB35HB20C d IS=3.09007e-07 RS=0.012861 N=2 EG=1.3 XTI=3.0157 BV=200 IBV=0.0001 CJO=1.14597n VJ=0.4 M=0.389409 FC=0.5 TT=1n
