* HFB50HC20
* diode/undefined/hfb50hc20.mod

.MODEL HFB50HC20 d IS=7.18041e-06 RS=0.00862324 N=2 EG=1.3 XTI=2.22389 BV=200 IBV=0.0001 CJO=2.80175n VJ=0.4 M=0.361761 FC=0.5 TT=1n
