* HFB60HF20
* diode/undefined/hfb60hf20.mod

.MODEL HFB60HF20 d IS=1.33655e-05 RS=0.00424093 N=2 EG=0.6 XTI=0.5 BV=200 IBV=0.0001 CJO=1.42712n VJ=0.4 M=0.358042 FC=0.5 TT=1n
