* HFB60HF20C
* diode/undefined/hfb60hf20c.mod

.MODEL HFB60HF20C d IS=8.824e-07 RS=0.0053362 N=2 EG=1.3 XTI=2.93114 BV=200 IBV=0.0001 CJO=9.80264e-10 VJ=0.4 M=0.349795 FC=0.5 TT=1n
