* LL4148
* diode/undefined/ll4148.mod

.MODEL LL4148 D IS=3.6e-9 RS=0.03622 N=2.0 ISR=7.208e-9 NR=2.0 CJO=8.68e-13 M=0.021 VJ=0.6506 FC=0.5 TT=3.812e-9 BV=100.5 IBV=1.0e-4 EG=1.02 XTI=3
