* MBR20100
* diode/undefined/mbr20100.mod

.MODEL MBR20100 D IS=0.000210108 RS=0.0123882 N=2 EG=0.817576 XTI=0.500001 BV=1000 IBV=0.0001 CJO=1e-11 VJ=0.7 M=0.5 FC=0.5
