* MBR40250
* diode/undefined/mbr40250.mod

.MODEL mbr40250 d IS=3e-06 RS=0.00398945 N=1.75864 EG=0.999094 XTI=5 BV=250 IBV=0.00025 CJO=9.00035e-10 VJ=0.557029 M=0.428275 FC=0.5 TT=3.47959e-08
