* MBR4045PT
* diode/undefined/mbr4045pt.mod

.MODEL MBR4045PT D (IS=56.8N RS=1.05M N=1.7 BV=45 IBV=70M CJO=1.65N VJ=0.75 M=0.333 TT=4.32U EG=.69 XTI=2)

* Vpk: 45V
* Iave: 40
