* MBR845
* diode/undefined/mbr845.mod

.MODEL mbr845 d IS=6.50276e-05 RS=0.0119924 N=1.33205 EG=0.6 XTI=3.09376 BV=45 IBV=0.0001 CJO=1.3657n VJ=0.4 M=0.478505 FC=0.5 TT=1n
