* MBRA210ET3
* diode/undefined/mbra210et3.mod

.MODEL mbra210et3 d IS=1.58646n RS=0.01 N=0.797738 EG=0.71104 XTI=4 BV=10 IBV=8e-07 CJO=1.5593n VJ=0.570707 M=0.478061 FC=0.5
