* MBRP30045CT
* diode/undefined/mbrp30045ct.mod

.MODEL mbrp30045ct d IS=0.001 RS=0.000431628 N=1.97975 EG=1.3 XTI=2.80944 BV=45 IBV=0.0008 CJO=1e-11 VJ=0.7 M=0.5 FC=0.5
