* MUR3060
* diode/undefined/mur3060.mod

.MODEL MUR3060 D BV=600 CJO=517P IBV=10U IS=235U M=.333 N=3.68 RS=35M TT=86.4N VJ=.75
