* STTH3R06
* diode/undefined/stth3r06.mod

.MODEL STTH3R06 D IS=8.5465u N=3.0516 RS=29.4m IKF=.13432 CJO=74.985p M=.43409 VJ=.68625 ISR=10.010E-21 NR=4.995 FC=0.5 TT=14.5n
