* 2N242
* bjt/pnp/2n242.mod

.MODEL 2N242 PNP (IS=524N NF=1 BF=156 VAF=106 IKF=3 ISE=330N NE=2 BR=4 NR=1 VAR=40 IKR=4.5 RE=.190 RB=.763 RC=76.3M XTB=1.5 CJE=1.07N CJC=315P TF=1.5U TR=3u)

* Vceo: 35
* Icrating: 5
* MFG: Germanium-type
