* 2N2907P
* bjt/pnp/2n2907p.mod

.MODEL 2N2907P PNP(IS=650.6E-18 ISE=54.81f ISC=0 XTI=3 BF=231.7 BR=3.563 IKF=1.079 IKR=0 XTB=1.5 VAF=115.7 VAR=35 VJE=0.65 VJC=0.65 RE=0.15 RC=0.715 RB=10 CJE=19.82p CJC=14.76p XCJC=0.75 FC=0.5 NF=1 NR=1 NE=1.829 NC=2 MJE=0.3357 MJC=0.5383 TF=603.7p TR=111.3n ITF=0.65 VTF=5 XTF=1.7 EG=1.11 VCEO=40 ICRATING=600M MFG=NSC-PHILIPS)
