* 2N344
* bjt/pnp/2n344.mod

.model 2N344 PNP(Is=100p bf=22 Vaf=15 Cje=5p Cjc=2.5p Tf=3n Eg=.67 Rb=100 Re=10 MFG=GERMANIUM-TYPE)
