* 2N3703
* bjt/pnp/2n3703.mod

.MODEL 2N3703 PNP(IS=650.6E-18 ISE=189.7f ISC=0 XTI=3 BF=66.92 BR=4.197 IKF=1.079 IKR=0 XTB=1.5 VAF=115.7 VAR=35 VJE=0.65 VJC=0.65 RE=0.15 RC=0.715 RB=10 CJE=19.82p CJC=14.76p XCJC=0.75 FC=0.5 NF=1 NR=1 NE=1.829 NC=2 MJE=0.3357 MJC=0.5383 TF=761.3p TR=120.6n ITF=0.65 VTF=5 XTF=1.7 EG=1.11)

* VCEO: 45
* ICRATING: 200m
* MFG: NSC
