* 2N3702
* bjt/pnp/2n3702.mod

.MODEL 2N3702 PNP(IS=650.6E-18 ISE=97.16f ISC=0 XTI=3 BF=133.8 BR=3.73 IKF=1.081 IKR=0 XTB=1.5 VAF=115.7 VAR=35 VJE=0.65 VJC=0.65 RE=0.15 RC=0.715 RB=10 CJE=19.82p CJC=14.76p XCJC=0.75 FC=0.5 NF=1 NR=1 NE=1.832 NC=2 MJE=0.3357 MJC=0.5383 TF=761.3p TR=114.1n ITF=0.65 VTF=5 XTF=1.7 EG=1.11)

* VCEO: 40
* ICRATING: 200m
* MFG: NSC
