* 2N3868
* bjt/pnp/2n3868.mod

.model 2N3868 PNP(Is=20.4f Xti=3 Eg=1.11 Vaf=100 Bf=127.3 Ise=2.393p Ne=1.431 Ikf=29.49 Xtb=1 Var=100 Br=3.462 Isc=20.4f Nc=1.659 Ikr=.9991 Rc=.2438 Cjc=201.9p Mjc=.4284 Vjc=.9346 Fc=.5 Cje=459p Mje=.2692 Vje=.3905 Tr=98.05n Tf=2.593n Itf=1 Xtf=0 Vtf=10)

* Nk: 1.325
