* 2N3906_CORDELL
* bjt/pnp/2n3906_cordell.mod

.MODEL 2N3906_Cordell pnp IS=10f BF=180 VAF=40 IKF=0.6 ISE=30f NE=1.5 NF=1 RB=33 RC=1 RE=0.1 CJE=12p MJE=0.7 VJE=1.0 CJC=12p MJC=0.7 VJC=1.0 FC=0.5 TF=550p XTF=20000 VTF=10 ITF=3.5 TR=10n BR=4 IKR=11 EG=1.1 XTB=1.5 XTI=3 NC=15.5 ISC=0.5f VAR=100 NK=1.0 mfg=CA022411
