* 2N4121
* bjt/pnp/2n4121.mod

.MODEL 2N4121 PNP(IS=1.41f ISE=0 ISC=0 XTI=3 BF=122.2 BR=5.215 IKF=80m IKR=0 XTB=1.5 VAF=18.7 VAR=6.5 VJE=0.65 VJC=0.65 RE=0.15 RC=2.5 RB=10 CJE=8.063p CJC=9.728p XCJC=0.75 FC=0.5 NF=1 NR=1 NE=1.5 NC=2 MJE=0.3677 MJC=0.5776 TF=179.3p TR=34.2n ITF=0.4 VTF=4 XTF=6 EG=1.11 VCEO=40 ICRATING=100M MFG=NSC)
