* 2N4249
* bjt/pnp/2n4249.mod

.MODEL 2N4249 PNP(IS=6.734f ISE=6.734f ISC=0 XTI=3 BF=161.4 BR=2.767 IKF=0.1806 IKR=0 XTB=1.5 VAF=45.7 VAR=15 VJE=0.65 VJC=0.65 RE=0.15 RC=1.67 RB=10 CJE=7.5p CJC=6.2p XCJC=0.75 FC=0.5 NF=1 NR=1 NE=1.672 NC=2 MJE=0.2861 MJC=0.301 TF=467.4p TR=10.54n ITF=0.17 VTF=5 XTF=8 EG=1.11 VCEO=60 ICRATING=100m MFG=NSC)
