* 2N4258
* bjt/pnp/2n4258.mod

.MODEL 2N4258 PNP(IS=545.6E-18 ISE=0 ISC=0 XTI=3 BF=61.42 BR=1.426 IKF=50m IKR=0 XTB=1.5 VAF=100 VAR=30 VJE=0.65 VJC=0.65 RE=0.15 RC=3.75 RB=10 CJE=2.65p CJC=2.77p XCJC=0.75 FC=0.5 NF=1 NR=1 NE=1.5 NC=2 MJE=0.3083 MJC=0.1416 TF=118.5p TR=4.109n ITF=0.5 VTF=3 XTF=6 EG=1.11)

* VCEO: 12
* ICRATING: 50m
* MFG: NSC
