* 2N4355
* bjt/pnp/2n4355.mod

.MODEL 2N4355 PNP(IS=12.27p ISE=12.27p ISC=0 XTI=3 BF=194.8 BR=1.184 IKF=1.123 IKR=0 XTB=1.5 VAF=100 VAR=30 VJE=0.65 VJC=0.65 RE=0.06 RC=0.6 RB=10 CJE=106.7p CJC=48.28p XCJC=0.75 FC=0.5 NF=1 NR=1 NE=1.649 NC=2 MJE=0.5168 MJC=0.5615 TF=867p TR=474.5n ITF=0.2 VTF=2 XTF=0.8 EG=1.11 VCEO=60 ICRATING=500m MFG=NSC)
