* 2N4403_CORDELL
* bjt/pnp/2n4403_cordell.mod

.MODEL 2N4403_Cordell pnp IS=20f BF=120 VAF=50 IKF=0.9 ISE=5f NE=1.83 NF=1 RB=38 RC=0.7 RE=0.1 CJE=20p MJE=0.35 VJE=0.75 CJC=18p MJC=0.55 VJC=0.75 FC=0.5 TF=750p XTF=400 VTF=10 ITF=4 TR=100n BR=4 IKR=0 EG=1.1 XTB=1.5 XTI=3 NC=2 ISC=0

* mfg: CA030911
