* 2N5087_CORDELL
* bjt/pnp/2n5087_cordell.mod

.MODEL 2N5087_Cordell pnp IS=9f BF=197 VAF=90 IKF=0.08 ISE=6f NE=1.42 NF=1 RB=193 RC=1.7 RE=0.1 CJE=2.5p MJE=0.3 VJE=0.75 CJC=6p MJC=0.3 VJC=0.75 FC=0.5 TF=540p XTF=7 VTF=4 ITF=0.45 TR=10n BR=2.7 IKR=0 EG=1.1 XTB=1.5 XTI=3 NC=2 ISC=0

* mfg: CA030911
