* 2N507
* bjt/pnp/2n507.mod

.MODEL 2N507 PNP(IS=6.734f ISE=6.734f ISC=0 XTI=3 BF=254.1 BR=2.683 IKF=0.1962 IKR=0 XTB=1.5 VAF=45.7 VAR=15 VJE=0.65 VJC=0.65 RE=0.15 RC=1.67 RB=10 CJE=7.5p CJC=6.2p XCJC=0.75 FC=0.5 NF=1 NR=1 NE=1.741 NC=2 MJE=0.2861 MJC=0.301 TF=467.8p TR=10.1n ITF=0.17 VTF=5 XTF=8 EG=1.11 VCEO=40 ICRATING=100m MFG=NSC)
