* 2N5086
* bjt/pnp/2n5086.mod

.MODEL 2N5086 PNP(IS=28.000f ISE=24.903f ISC=0.125p XTI=3.300 BF=284.436 BR=4.800 IKF=0.380 IKR=0.932 XTB=1.600 VAF=43.0 VAR=6.960 VJE=1.0 VJC=0.900 RE=0.300 RC=2.251 RB=2.200 RBM=1.500 IRB=0.100m CJE=11.800p CJC=8.700p XCJC=0.650 FC=0.750 NF=1.0 NR=1.005 NE=2.234 NC=2.074 MJE=0.435 MJC=0.600 TF=0.600n TR=2.604n PTF=1.0 ITF=0.314 VTF=2.0 XTF=6.500 EG=1.110 VCEO=50 ICRATING=50m MFG=SIEMENS)
