* 2N5401_CORDELL
* bjt/pnp/2n5401_cordell.mod

.MODEL 2N5401_Cordell pnp IS=25f BF=220 VAF=196 IKF=0.2 ISE=2f NE=1.4 NF=1 RB=60 RC=2 RE=0.1 CJE=35p MJE=0.40 VJE=0.75 CJC=15p MJC=0.55 VJC=0.75 FC=0.5 TF=800p XTF=60 VTF=0 ITF=4 TR=1.5n BR=4 IKR=0 EG=1.1 XTB=1.5 XTI=3 NC=2 ISC=0 mfg=CA031011
