* 2N6726A
* bjt/pnp/2n6726a.mod

.MODEL 2N6726A PNP(IS=24.64f ISE=0 ISC=0 XTI=3 BF=154.5 BR=1.424 IKF=1.25 IKR=0 XTB=1.5 VAF=100 VAR=30 VJE=0.65 VJC=0.65 RE=0.06 RC=0.6 RB=10 CJE=132.4p CJC=63.67p XCJC=0.75 FC=0.5 NF=1 NR=1 NE=1.5 NC=2 MJE=0.4174 MJC=0.4749 TF=645.4p TR=5.721n ITF=0.8 VTF=6 XTF=4.5 EG=1.11)

* VCEO: 40
* ICRATING: 2
* MFG: NSC
