* 2NXXXX
* bjt/pnp/2nxxxx.mod

.MODEL 2Nxxxx PNP (IS=1.25N NF=1 BF=78 VAF=90 IKF=60M ISE=4.57N NE=2 BR=4 NR=1 VAR=14 IKR=90M RE=2.63 RB=10.5 RC=1.05 XTB=1.5 CJE=27.9P CJC=8.22P TF=437P TR=17N)

* Vceo: 25
* Icrating: 100m
* MFG: Germanium-type
