* 2SA1943
* bjt/pnp/2sa1943.mod

.MODEL 2SA1943 PNP (IS=3.5476E-11 BF=159.9 VAF=60 IKF=2.8370 ISE=2.5119E-10 NE=2 BR=25.75 NR=1.011 VAR=11.07 IKR=0.3548 ISC=7.9433E-11 NC=1.37 RE=0.06 RB=2.74 RBM=0.0381 IRB=3.6308m RC=0.01 CJE=4.1783n VJE=0.6354 MJE=0.3374 CJC=1.1383n VJC=0.5 MJC=0.3699 XCJC=0.7624 FC=0.5 EG=1.1751 XTB=1.5306 XTI=3.0)
