* 2SA1216
* bjt/pnp/2sa1216.mod

.MODEL 2SA1216 PNP (IS=10.3142F BF=2K NF=859.228M VAF=100 IKF=1.63669 ISE=1.04476P NE=1.21974 BR=345.69M IKR=1.29764 ISC=168.339F NC=2 RE=34.4482M RC=1.41289M CJE=7.64286N VJE=700M MJE=1000M CJC=3.29536N VJC=998.778M MJC=786.017M FC=500M TF=3.61143N XTF=509.7M VTF=9.99862 ITF=547.898F TR=10N EG=1.11)
