* 2SA1358
* bjt/pnp/2sa1358.mod

.MODEL 2SA1358 PNP BR=0.01 CJE=1E-13 EG=1.11 FC=0.5 IKF=0.855 IKR=1 IRB=0.000289 IS=3.62E-14 ISC=1E-13 ISE=5.78E-11 ITF=0 KF=0 MJC=0.33 MJE=0.33 NC=2 NE=2 NF=0.915 NR=1.14 RB=50 RBM=1 RE=0.0001 TR=10.000n VAF=20.8 VAR=50 VJC=0.75 VJE=0.75 VTF=1E+06 XTB=1.8 XTI=2.5 BF=1.160000E+02 CJC=1.250000E-11 RC=7.270000E-01 TF=1.33n XTF=1.
