* 2SA1381_CORDELL
* bjt/pnp/2sa1381_cordell.mod

.MODEL 2SA1381_Cordell pnp IS=50f BF=160 VAF=328 IKF=0.5 ISE=10f NE=1.5 NF=1 RB=17 RC=4.1 RE=0.05 CJE=71p MJE=0.35 VJE=0.75 CJC=8p MJC=0.35 VJC=0.55 FC=0.5 TF=900p XTF=10000 VTF=35 ITF=20 TR=1n BR=1.6 IKR=0.09 EG=0.6 XTB=0.9 XTI=3 NC=2 ISC=3.2e-10 VAR=100

* mfg: CA031111
