* 2SA1145
* bjt/pnp/2sa1145.mod

.MODEL 2SA1145 PNP (IS=10F BF=134.853 VAF=100 IKF=109.96M ISE=221.874F NE=1.66575 BR=10 IKR=880.176M ISC=187.58P NC=1.90472 RE=1 RC=15.5104 CJE=2P MJE=500M CJC=6.24728P VJC=692.028M MJC=340.013M TF=1.08385N XTF=16.9293 VTF=9.36211 ITF=670.025M TR=10N )
