* 2SA1406
* bjt/pnp/2sa1406.mod

.MODEL 2SA1406 PNP (IS=10.1F NF=1 BF=390 VAF=254 IKF=60M ISE=2.6P NE=2 BR=4 NR=1 VAR=16 IKR=90M RE=1.88 RB=7.53 RC=.753 XTB=1.5 CJE=16.8P VJE=1.1 MJE=.5 CJC=5.44P VJC=.3 MJC=.3 TF=397P TR=276N)

* VCEO: 200
* ICrating: 100M
* MFG: Sanyo
