* 2SA1011
* bjt/pnp/2sa1011.mod

.model 2SA1011 PNP(Is=6.734p Eg=1.11 Vaf=100 Bf=106.7 Ise=6.755p Ne=1.328 Ikf=2.481 Xtb=1.5 Br=8.268 Isc=6.734p Nc=1.167 Ikr=.9435 Rc=1.155 Cjc=483.8p Mjc=.3806 Vjc=6.248m Cje=500p Tr=181.1n Tf=1.603n Itf=1.08 Xtf=4.227 Vtf=10)

* Nk: .8564
* Vceo: 160
* Icrating: 1.5
* mfg: Sanyo
