* 2SA1213
* bjt/pnp/2sa1213.mod

.MODEL 2SA1213 PNP(IS=2.6E-13 ISE=1.2E-13 ISC=12.04E-13 XTI=3 BF=210 BR=70 IKF=7 IKR=0.6 XTB=1.5 VAF=27 VAR=14 VJE=0.65 VJC=0.305 RE=0.065 RC=0.04 RB=0.3 CJE=410p CJC=140p XCJC=0.75 FC=0.5 NF=0.999 NR=0.982 NE=1.43 NC=1.4474 MJE=0.35 MJC=0.35 TF=0.65n TR=12n EG=1.11 VCEO=45V ICRATING=100M MFG=ZETEX)
