* 2SA1407_CORDELL
* bjt/pnp/2sa1407_cordell.mod

.MODEL 2SA1407_Cordell pnp IS=70f BF=110 VAF=135 IKF=0.2 ISE=5000f NE=2 NF=1 RB=30 RC=3 RE=0.5 CJE=80p MJE=0.5 VJE=1.0 CJC=10p MJC=0.3 VJC=0.5 FC=0.5 TF=320p XTF=10000 VTF=35 ITF=20 TR=100n BR=1.6 IKR=0.09 EG=0.6 XTB=0.9 XTI=3 NC=2 ISC=3e-10 VAR=100 mfg=CA041011
