* 2SA1037AK
* bjt/pnp/2sa1037ak.mod

.MODEL 2SA1037AK PNP IS=70f BF=266.38 VAF=50.7 IKF=.27914 ISE=70f NE=1.7618 BR=1.873 VAR=100 IKR=2.0006 ISC=270.82p NC=1.7915 RE=.2 RB=7.8035 RC=1.0862 CJE=22.937p MJE=.58268 CJC=11.613p MJC=.43988 TF=328.92p XTF=331.17 VTF=254.25 ITF=8.1505 TR=327.28n XTB=1.5
