* 2SA1265N
* bjt/pnp/2sa1265n.mod

.model 2sa1265n pnp IS=1p BF=102 VAF=110 IKF=17.5 ISE=150p NE=2 BR=4 ISC=800p NC=1.65 RB=500m RBM=500m RE=47.5m RC=70m CJE=4.75n VJE=900m MJE=500m TF=4.5n XTF=1.5 VTF=10 ITF=8 CJC=1.16494n VJC=750m XCJC=500m TR=1.00065u XTB=2.69319 FC=800m
