* 2SA1538
* bjt/pnp/2sa1538.mod

.MODEL 2SA1538 PNP ( IS=10.2f BF=120 NF=0.98 VAF=15 IKF=5 ISE=30f NE=1.7 BR=0.38 NR=1.00 VAR=60 IKR=2 ISC=20.0f NC=1.80 RB=180m IRB=1.00 RBM=180m RE=40.0m RC=190.0m XTB=0 XTI=3 EG=1.11 CJC=9.5p FC=0.5 MJC=0.33 VJC=0.75 MJE=0.33 VJE=0.75 CJE=17p TF=500p ITF=1 XTF=10 VTF=20)

* NK: 0.82
* MFG: SANYO
