* 2SA1015
* bjt/pnp/2sa1015.mod

.model 2SA1015 PNP(Is=295.1E-18 Xti=3 Eg=1.11 Vaf=100 Bf=110 Xtb=1.5 Br=10.45 Rc=15 Cjc=66.2p Mjc=1.054 Vjc=.75 Fc=.5 Cje=5p Mje=.3333 Vje=.75 Tr=10n Tf=1.661n VCEO=45V ICrating=150M MFG=Toshiba)
