* 2SA733
* bjt/pnp/2sa733.mod

.model 2sa733 pnp IS=55.9f BF=205 NF=1.01201 VAF=135 IKF=462.6m ISE=180f NE=1.65 BR=2.048 NR=1.012 RB=20 RE=10m RC=1.7 CJE=35p VJE=900m MJE=500m TF=700p XTF=10 VTF=10 ITF=700m CJC=13p VJC=750m MJC=400m XCJC=500m TR=10n XTB=2.00849 EG=1.11 XTI=3 FC=500m
