* 2SA872
* bjt/pnp/2sa872.mod

.MODEL 2SA872 PNP BR=1 CJE=1E-11 EG=1.11 FC=0.5 IKF=0.017 IKR=1 IRB=1E-06 IS=9.03E-16 ISC=1E-13 ISE=1.7E-13 ITF=0.296 MJC=0.232 MJE=0.33 MJS=0.33 NC=2 NE=2 NF=0.88 NR=1 RB=0.6 RBM=0.01 RE=0.0001 Tr=10n VAF=10 VAR=50 VJC=0.3 VJE=0.75 VTF=994000 XTB=1.48 XTI=2.5 BF=2.570000E+02 CJC=5.000000p RC=1.000000E-02 TF=1.25n XTF=4.66E+01
