* 2SA916
* bjt/pnp/2sa916.mod

.model 2sa916 PNP(Is=91.5f Xti=3 Eg=1.11 Vaf=100 Bf=245.4 Ise=91.69f Ne=1.419 Ikf=76.21m Nk=.7132 Xtb=1.5 Var=100 Br=1 Isc=161.6p Nc=1.772 Ikr=6.597 Rc=5.3 Cjc=7.904p Mjc=.3494 Vjc=.3905 Fc=.5 Cje=13.59p Mje=.3255 Vje=.3905 Tr=10n Tf=1.849n Itf=.5153 Xtf=48.28 Vtf=10)
