* 2SB1011
* bjt/pnp/2sb1011.mod

.MODEL 2SB1011 PNP (IS=10.1F NF=1 BF=286 VAF=360 IKF=60M ISE=3.54P NE=2 BR=4 NR=1 VAR=16 IKR=90M RE=15.6 RB=62.5 RC=6.25 XTB=1.5 CJE=66P VJE=1.1 MJE=.5 CJC=21.3P VJC=.3 MJC=.3 TF=2.27N TR=1.57U Vceo=400 Icrating=100m mfg=Matsushita)
