* 2SB1109
* bjt/pnp/2sb1109.mod

.MODEL 2SB1109 PNP BR=0.0352 CJE=4E-11 EG=1.11 FC=0.5 IKF=0.0761 IKR=1 IRB=0.00026 IS=1.14E-14 ISC=1E-13 ISE=2.01f ITF=0.213 MJC=0.425 MJE=0.33 MJS=0.33 NC=2 NE=1.09 NF=0.94 NR=1.09 RB=4 RBM=0.01 RE=0.000121 VAF=262 VAR=50 VJC=0.495 VJE=0.75 VTF=999000 XTB=1.85 XTI=2.5 BF=216 CJC=2.210000E-11 RC=2.22 TF=8.230000E-10 XTF=6.44
