* 2SB1241
* bjt/pnp/2sb1241.mod

.MODEL 2SB1241 PNP (IS=220.00f BF=140.43 VAF=23.200 IKF=7.9366 ISE=220.00f NE=1.6291 BR=30.282 VAR=100 IKR=13.783 ISC=274.44p NC=1.5976 NK=.83042 RE=50.000m RB=.6938 RC=.149 CJE=311.85p MJE=.35932 CJC=89.315p MJC=.50953 TF=714.69p XTF=11.729 VTF=22.370 ITF=7.7977 TR=101.04n XTB=1.5000 Vceo=80 Icrating=1 mfg=ROHM)
