* 2SB1375
* bjt/pnp/2sb1375.mod

.MODEL 2SB1375 PNP BR=20 CJE=1E-13 EG=1.11 FC=0.5 IKF=0.35 IKR=1 IRB=0.00139 IS=1E-10 ISC=1E-13 ISE=2.32E-11 ITF=0 MJC=0.33 MJE=0.33 NC=2 NE=1.53 NF=1.12 NR=1.11 RB=50 RBM=0.0119 RE=0.00183 VAF=32 VAR=50 VJC=0.75 VJE=0.75 VTF=1E+06 XTB=1.17 XTI=2.5 BF=3.340000E+02 CJC=1.200000E-10 RC=2.600000E-01 TF=1.770000E-08 XTF=1
