* 2SB1243
* bjt/pnp/2sb1243.mod

.MODEL 2SB1243 PNP (IS=2.3000p BF=100.72 VAF=6.2769 IKF=4.3760 ISE=2.3000p NE=1.3995 BR=77.572 VAR=100 IKR=15.080 ISC=377.34p NC=1.4838 RE=.1 RB=.38561 RC=15.139m CJE=983.02p MJE=.58268 CJC=156.05p MJC=.41274 TF=2.0777n XTF=11.061 VTF=14.341 ITF=9.7241 TR=43.264n XTB=1.5000)

* NK: .67175
* Vceo: 50
* Icrating: 3
* mfg: ROHM
