* 2SB647
* bjt/pnp/2sb647.mod

.model 2SB647 PNP (Is=50.43p Xti=3 Eg=1.11 Vaf=100 Bf=207.5 Ise=50.43p Ne=1.804 Ikf=2.527 Nk=.9904 Xtb=1.5 Var=100 Br=1.006 Isc=10.65n Nc=1.71 Ikr=.1739 Rc=.7486 Cjc=62.31p Mjc=.5547 Vjc=1.389 Fc=.5 Cje=5p Mje=.3333 Vje=.75 Tr=10n Tf=1.356n Itf=1.72 Xtf=0 Vtf=10)
