* 2SB649A
* bjt/pnp/2sb649a.mod

.model 2SB649A pnp ( IS=293.5f BF=216 NF=1.0 VAF=40 IKF=1.5 ISE=101.1p NE=2.6797 BR=7 NR=1.0 VAR=20 IKR=0.05 ISC=1.345p NC=1.5558 RB=0.46 RBM=0.46 RE=5m RC=1.07 CJE=295.4p VJE=0.6977 MJE=0.5197 TF=0.8569n XTF=53.4 VTF=2.83 ITF=1.22 CJC=113.1p VJC=0.5466 MJC=0.5742 XCJC=0.5 TR=14.65n XTB=1.87 EG=1.11 XTI=3.0 FC=0.5)
