* 2T203B
* bjt/pnp/2t203b.mod

.model 2T203B PNP(Is=459.4E-18 Xti=3 Eg=1.11 Vaf=46.32 Bf=59.84 Ise=472E-18 Ne=1.23 Ikf=14.75m Xtb=1.5 Br=.9521 Isc=183.9f Nc=1.223 Ikr=.8622 Rb=270 Rc=.3177 Cjc=12.95p Mjc=.33 Vjc=.75 Cje=93.8p Mje=.5729 Vje=.75 Tr=10.33u Tf=14.64n Itf=.25 Xtf=2 Vtf=20 Fc=.5)

* Nk: .5
* mfg: USSR
