* 2T3108A
* bjt/pnp/2t3108a.mod

.model 2T3108A PNP(Is=1.41f Xti=3 Eg=1.11 Vaf=87 Bf=112.7 Ne=3.346 Ise=114.2p Ikf=31.92m Xtb=1.5 Br=1.883 Nc=2 Isc=114f Ikr=31m Rb=52 Cjc=4.372p Mjc=.33 Vjc=.75 Fc=.5 Cje=3.714p Mje=.33 Tr=67.31n Tf=344.1p Itf=56m Vtf=45 Xtf=1.5 Vje=.75 Rc=4.25 mfg=USSR)
