* AC151
* bjt/pnp/ac151.mod

.MODEL AC151 pnp(IS=10u ISC=5u ISE=1u IKF=400m ITF=200m NC=2 NE=2 BF=110 BR=5 RB=75 rbm=5 irb=0.25m RC=0.5 RE=0.5 vaf=20 var=20 CJC=75p CJE=30p TR=3u TF=100n FC=0.5 eg=0.72 VJC=0.4 VJE=0.4 VTF=4 MJC=0.4 MJE=0.4 XTB=1.5 XTF=6 XTI=3 Vceo=24 Icrating=200m MFG=GERMANIUM-TYPE)
