* BC179B
* bjt/pnp/bc179b.mod

.model BC179B PNP(Is=336.7f Xti=3 Eg=1.11 Vaf=30.75 Bf=271.9 Ise=2.821p Ne=1.925 Ikf=.2462 Xtb=1.5 Br=3.009 Isc=1.753n Nc=2.075 Ikr=8.143 Rc=1.803 Cjc=11p Mjc=.2223 Vjc=.5 Fc=.5 Cje=33p Mje=.3333 Vje=.5 Tr=10n Tf=846p Itf=1.546 Xtf=18.27 Vtf=10)

* Nk: .5416
* Vceo: 25
* Icrating: 100m
* mfg: Philips
