* BC178A
* bjt/pnp/bc178a.mod

.model BC178A PNP(Is=336.7f Xti=3 Eg=1.11 Vaf=44.61 Bf=187 Ise=336.8f Ne=1.459 Ikf=.2059 Xtb=1.5 Br=4.068 Isc=1.121n Nc=1.953 Ikr=10.05 Rc=1.86 Cjc=11p Mjc=.2223 Vjc=.5 Fc=.5 Cje=33p Mje=.3333 Vje=.5 Tr=10n Tf=845.5p Itf=1.701 Xtf=19.04 Vtf=10)

* Nk: .5081
* Vceo: 30
* Icrating: 100m
* mfg: Philips
