* BC212B
* bjt/pnp/bc212b.mod

.model BC212B PNP (IS=10.2F NF=1 BF=156 VAF=127 IKF=60M ISE=8.4P NE=2 BR=4 NR=1 VAR=20 IKR=90M RE=0.515 RB=2.06 RC=0.206 XTB=1.5 CJE=30.8P VJE=1.1 MJE=0.5 CJC=9.94P VJC=0.3 MJC=0.3 TF=568P TR=395N)

* VCEO: 50V
* ICrating: 100M
* MFG: Motorola
