* BC313
* bjt/pnp/bc313.mod

.model BC313 PNP(Is=44.3f Xti=3 Eg=1.11 Vaf=62 Bf=200 Ise=44.3f Ne=1.5 Ikf=2 Xtb=1.5 Br=10 Isc=0 Nc=2 Ikr=0 Rc=.5 Cjc=48p Mjc=.4218 Vjc=.75 Fc=.5 Cje=95p Mje=.3937 Vje=.75 Tr=120n Tf=1.1n Itf=.1 Xtf=.1 Vtf=5 RCO=3.5 GAMMA=2n QCO=1E-11)

* Nk: .7
