* BC327S
* bjt/pnp/bc327s.mod

.MODEL BC327S PNP(IS=0.230p ISE=39.284f ISC=0.118f XTI=4.800 BF=504.327 BR=23.0 IKF=0.780 IKR=0.195 XTB=1.700 VAF=26.0 VAR=4.500 VJE=1.0 VJC=1.0 RE=0.203 RC=0.262 RB=0.800 RBM=0.400 IRB=0.100m CJE=57.177p CJC=28.600p XCJC=0.650 FC=0.750 NF=1.0 NR=1.002 NE=1.944 NC=3.025 MJE=0.470 MJC=0.520 TF=0.664n TR=2.600n PTF=1.0 ITF=0.250 VTF=2.0 XTF=6.350 EG=1.110 MFG=SIEMENS)
