* BC369
* bjt/pnp/bc369.mod

.model BC369 PNP(Is=13.01f Xti=3 Eg=1.11 Vaf=100 Bf=191.1 Ise=105f Ne=1.695 Ikf=2.253 Xtb=1.5 Br=9.046MEG Isc=853.3f Nc=9.905 Ikr=116.1 Rc=.1694 Cjc=87.73p Mjc=.3333 Vjc=.5 Fc=.5 Cje=261p Mje=.3333 Vje=.5 Tr=10n Tf=998.5p Itf=14.84 Xtf=15.37 Vtf=10)

* Nk: .5176
* Vceo: 25
* Icrating: 1
* mfg: Philips
