* BC556A
* bjt/pnp/bc556a.mod

.model BC556A PNP(Is=1.02f Xti=3 Eg=1.11 Vaf=73.79 Bf=174.7 Ise=10.73f Ne=1.644 Ikf=.1023 Xtb=1.5 Br=4.432 Isc=14.74f Nc=1.296 Ikr=2.237 Rc=1.039 Cjc=9.81p Mjc=.332 Vjc=.4865 Fc=.5 Cje=30p Mje=.3333 Vje=.5 Tr=10n Tf=830.3p Itf=.8981 Xtf=10.32 Vtf=10)

* Nk: .5033
* Vceo: 80
* Icrating: 100m
* mfg: Philips
