* BC559A
* bjt/pnp/bc559a.mod

.model BC559A PNP(Is=1.02f Xti=3 Eg=1.11 Vaf=74.76 Bf=175.1 Ise=10.26f Ne=1.641 Ikf=88.84m Xtb=1.5 Br=4.329 Isc=71.92f Nc=1.401 Ikr=9.634 Rc=1.071 Cjc=9.81p Mjc=.332 Vjc=.4865 Fc=.5 Cje=30p Mje=.3333 Vje=.5 Tr=10n Tf=822.7p Itf=3.991 Xtf=174.7 Vtf=10)

* Nk: .4971
* Vceo: 30
* Icrating: 100m
* mfg: Philips
