* BC560B
* bjt/pnp/bc560b.mod

.model BC560B PNP(Is=1.02f Xti=3 Eg=1.11 Vaf=51.26 Bf=289.6 Ise=9.846f Ne=1.845 Ikf=.1026 Nk=.5413 Xtb=1.5 Br=6.124 Isc=1.113f Nc=1.97 Ikr=.2035 Rc=1.078 Cjc=9.81p Mjc=.332 Vjc=.4865 Fc=.5 Cje=30p Mje=.3333 Vje=.5 Tr=10n Tf=612.4p Itf=1.287 Xtf=25.55 Vtf=10 Vceo=30 Icrating=100m mfg=Philips)
