* BC560_CORDELL
* bjt/pnp/bc560_cordell.mod

.MODEL BC560_Cordell pnp IS=60f BF=900 VAF=160 IKF=0.10 ISE=70f NE=1.42 NF=1 RB=170 RC=1.0 RE=0.05 CJE=19p MJE=0.3 VJE=0.75 CJC=3.9p MJC=0.3 VJC=0.75 FC=0.5 TF=600p XTF=7 VTF=4 ITF=0.45 TR=10n BR=3 IKR=0 EG=1.1 XTB=1.5 XTI=3 NC=2 ISC=0 mfg=CA030211
