* BC808-40
* bjt/pnp/bc808-40.mod

.model BC808-40 PNP(Is=32.53f Xti=3 Eg=1.11 Vaf=100 Bf=460.8 Ise=301.2f Ne=1.615 Ikf=.4967 Xtb=1.5 Br=6.87 Isc=283.2f Nc=1.97 Ikr=9.135m Rc=.3759 Cjc=24.29p Mjc=.3333 Vjc=.5 Fc=.5 Cje=71.14p Mje=.3333 Vje=.5 Tr=10n Tf=704.3p Itf=13.89 Xtf=1.333K Vtf=10)

* Nk: .5594
* Vceo: 30
* Icrating: 500m
* mfg: Siemens
