* BC808-25
* bjt/pnp/bc808-25.mod

.model BC808-25 PNP(Is=32.53f Xti=3 Eg=1.11 Vaf=100 Bf=340 Ise=288.9f Ne=1.568 Ikf=.4118 Nk=.5241 Xtb=1.5 Br=6.333 Isc=262.4f Nc=1.87 Ikr=32.84m Rc=.3998 Cjc=24.29p Mjc=.3333 Vjc=.5 Fc=.5 Cje=71.14p Mje=.3333 Vje=.5 Tr=10n Tf=704.1p Itf=14.26 Xtf=1.332K Vtf=10 Vceo=30 Icrating=500m mfg=Siemens)
