* BC807-16
* bjt/pnp/bc807-16.mod

.model BC807-16 PNP(Is=32.53f Xti=3 Eg=1.11 Vaf=100 Bf=209 Ise=318.3f Ne=1.542 Ikf=.6049 Xtb=1.5 Br=6.501 Isc=179.5f Nc=1.832 Ikr=.1402 Rc=.4026 Cjc=24.29p Mjc=.3333 Vjc=.5 Fc=.5 Cje=71.14p Mje=.3333 Vje=.5 Tr=10n Tf=703p Itf=13.36 Xtf=1.289K Vtf=10

* Nk: .6086
* Vceo: 50
* Icrating: 500m
* mfg: Siemens
