* BC859B
* bjt/pnp/bc859b.mod

.model BC859B PNP(Is=336.7f Xti=3 Eg=1.11 Vaf=62.37 Bf=277.7 Ise=1.966p Ne=2.123 Ikf=.1686 Xtb=1.5 Br=7.16 Isc=196p Nc=1.815 Ikr=9.677 Rc=2.891 Cjc=11.51p Mjc=.3626 Vjc=.5 Fc=.5 Cje=8.397p Mje=.3865 Vje=.5 Tr=10n Tf=605.9p Itf=2.133 Xtf=23.02 Vtf=10)

* Nk: .545
* Vceo: 30
* Icrating: 100m
* mfg: Siemens
