* BC859A
* bjt/pnp/bc859a.mod

.model BC859A PNP(Is=336.7f Xti=3 Eg=1.11 Vaf=106.8 Bf=180.6 Ise=2.666p Ne=1.944 Ikf=.1094 Xtb=1.5 Br=7.16 Isc=196p Nc=1.815 Ikr=9.677 Rc=2.791 Cjc=11.51p Mjc=.3626 Vjc=.5 Fc=.5 Cje=8.397p Mje=.3865 Vje=.5 Tr=10n Tf=605.1p Itf=2.326 Xtf=20.43 Vtf=10)

* Nk: .4986
* Vceo: 30
* Icrating: 100m
* mfg: Siemens
