* BC859C
* bjt/pnp/bc859c.mod

.model BC859C PNP(Is=336.7f Xti=3 Eg=1.11 Vaf=29.03 Bf=462.2 Ise=1.648p Ne=2.405 Ikf=.1165 Xtb=1.5 Br=7.16 Isc=196p Nc=1.815 Ikr=9.677 Rc=2.791 Cjc=11.51p Mjc=.3626 Vjc=.5 Fc=.5 Cje=8.397p Mje=.3865 Vje=.5 Tr=10n Tf=605.4p Itf=3.088 Xtf=41.48 Vtf=10)

* Nk: .5254
* Vceo: 30
* Icrating: 100m
* mfg: Siemens
