* BCP70
* bjt/pnp/bcp70.mod

.MODEL BCP70 PNP(IS=0.750p ISE=1.850f ISC=25.000f XTI=5.0 BF=228.200 BR=130 IKF=1.220 IKR=2.200 XTB=2.100 VAF=16.500 VAR=5.0 VJE=1.200 VJC=0.720 RE=35.000m RC=39.961m RB=0.500 RBM=0.300 IRB=10.000m CJE=0.295n CJC=0.228n XCJC=0.723 FC=0.500 NF=1.010 NR=1.007 NE=2.004 NC=1.078 MJE=0.600 MJC=0.320 TF=0.275n TR=0.100E-6 PTF=1.0 ITF=2.500 VTF=2.500 XTF=0.800 EG=1.120)

* MFG: SIEMENS
