* BCW61C
* bjt/pnp/bcw61c.mod

.model BCW61C PNP(Is=26.39f Xti=3 Eg=1.11 Vaf=62.37 Bf=330.6 Ise=285.2f Ne=2.013 Ikf=2.498 Xtb=1.5 Br=7.258 Isc=104.6p Nc=2.312 Ikr=.332 Rc=2.694 Cjc=11.51p Mjc=.3626 Vjc=.5 Fc=.5 Cje=8.397p Mje=.3865 Vje=.5 Tr=10n Tf=590.8p Itf=.8403 Xtf=457.4 Vtf=1)

* Nk: .5
* Vceo: 32
* Icrating: 200m
* mfg: Siemens
