* BCW67A
* bjt/pnp/bcw67a.mod

.model BCW67A PNP(Is=44.97f Xti=3 Eg=1.11 Vaf=100 Bf=256.4 Ise=424.6f Ne=1.46 Ikf=.5694 Xtb=1.5 Br=13.26 Isc=1.56p Nc=1.654 Ikr=9.432 Rc=.554 Cjc=14.57p Mjc=.3333 Vjc=.5 Fc=.5 Cje=71.14p Mje=.3333 Vje=.5 Tr=10n Tf=655p Itf=.8418 Xtf=10.72 Vtf=10)

* Nk: .6383
* Vceo: 45
* Icrating: 800m
* mfg: Siemens
