* BCW61FN
* bjt/pnp/bcw61fn.mod

.model BCW61FN PNP(Is=26.39f Xti=3 Eg=1.11 Vaf=35.7 Bf=464.5 Ise=227f Ne=2.108 Ikf=.1247 Xtb=1.5 Br=7.094 Isc=90.49p Nc=2.24 Ikr=.4226 Rc=2.604 Cjc=11.51p Mjc=.3626 Vjc=.5 Fc=.5 Cje=8.397p Mje=.3865 Vje=.5 Tr=10n Tf=591.1p Itf=.7698 Xtf=230.9 Vtf=1)

* Nk: .5
* Vceo: 32
* Icrating: 200m
* mfg: Siemens
