* BCW68F
* bjt/pnp/bcw68f.mod

.model BCW68F PNP(Is=40f VAF=100 Bf=175 IKF=2 Br=6 RC=.5 RE=0.1 RB=0.2 CJC=13p CJE=60p TR=12n TF=600p Vceo=45 Icrating=800m mfg=ROHM)
