* BCW67B
* bjt/pnp/bcw67b.mod

.model BCW67B PNP(Is=44.97f Xti=3 Eg=1.11 Vaf=100 Bf=373.4 Ise=600f Ne=1.538 Ikf=.6542 Xtb=1.5 Br=12.01 Isc=1.997p Nc=1.678 Ikr=9.679 Rc=.5562 Cjc=14.57p Mjc=.3333 Vjc=.5 Fc=.5 Cje=71.14p Mje=.3333 Vje=.5 Tr=10n Tf=669.8p Itf=1.943 Xtf=37.78 Vtf=10)

* Nk: .669
* Vceo: 45
* Icrating: 800m
* mfg: Siemens
