* BCW61B
* bjt/pnp/bcw61b.mod

.model BCW61B PNP(Is=26.39f Xti=3 Eg=1.11 Vaf=79.03 Bf=243.9 Ise=236.2f Ne=1.831 Ikf=.4069 Nk=.5 Xtb=1.5 Br=8.138 Isc=92.15p Nc=2.252 Ikr=.3702 Rc=2.597 Cjc=11.51p Mjc=.3626 Vjc=.5 Fc=.5 Cje=8.397p Mje=.3865 Vje=.5 Tr=10n Tf=590.5p Itf=.642 Xtf=225.6 Vtf=1 Vceo=32 Icrating=200m mfg=Siemens)
