* BCW67C
* bjt/pnp/bcw67c.mod

.model BCW67C PNP(Is=44.97f Xti=3 Eg=1.11 Vaf=100 Bf=550.3 Ise=233.3f Ne=1.478 Ikf=.5906 Nk=.646 Xtb=1.5 Br=12.01 Isc=1.997p Nc=1.678 Ikr=9.679 Rc=.5562 Cjc=14.57p Mjc=.3333 Vjc=.5 Fc=.5 Cje=71.14p Mje=.3333 Vje=.5 Tr=10n Tf=675.6p Itf=3.423 Xtf=96.44 Vtf=10 Vceo=45 Icrating=800m mfg=Siemens)
