* BCW68G
* bjt/pnp/bcw68g.mod

.model BCW68G PNP(Is=40f VAF=80 Bf=280 IKF=2.5 Br=6 RC=.5 RE=0.1 RB=0.2 CJC=13p CJE=60p TR=12n TF=600p)

* Vceo: 45
* Icrating: 800m
* mfg: ROHM
