* BCX71G
* bjt/pnp/bcx71g.mod

.model BCX71G PNP(Is=26.39f Xti=3 Eg=1.11 Vaf=106.8 Bf=166.5 Ise=249.1f Ne=1.806 Ikf=1.217 Nk=.5 Xtb=1.5 Br=8.744 Isc=82.16p Nc=2.283 Ikr=29.82m Rc=2.543 Cjc=11.51p Mjc=.3626 Vjc=.5 Fc=.5 Cje=8.397p Mje=.3865 Vje=.5 Tr=10n Tf=590.5p Itf=.603 Xtf=225 Vtf=1 Vceo=45 Icrating=200m mfg=Siemens)
