* BCY71
* bjt/pnp/bcy71.mod

.model BCY71 PNP(Is=22.48f Xti=3 Eg=1.11 Vaf=68.32 Bf=323.6 Ise=291.5f Ne=1.906 Ikf=.1158 Xtb=1.5 Br=1 Isc=1.181p Nc=1.234 Ikr=9.81 Rc=2.019 Cjc=23.19p Mjc=.2354 Vjc=.5 Fc=.5 Cje=9p Mje=.3117 Vje=.5 Tr=809.2n Tf=275.3p Itf=17.79 Xtf=214.9 Vtf=10)

* Nk: .5113
* Vceo: 50
* Icrating: 200m
* mfg: Philips
