* BCY79-7
* bjt/pnp/bcy79-7.mod

.model BCY79-7 PNP(Is=55.58p Xti=3 Eg=1.11 Vaf=106.8 Bf=188.5 Ise=230.7p Ne=2.751 Ikf=74.06m Xtb=1.5 Br=2.429 Isc=34.94n Nc=2.499 Ikr=1.387 Rc=2.829 Cjc=16p Mjc=.3333 Vjc=.5 Fc=.5 Cje=16.78p Mje=.3333 Vje=.5 Tr=283n Tf=762.6p Itf=5.95 Xtf=180.6 Vtf=10)

* Nk: .5019
* Vceo: 45
* Icrating: 100m
* mfg: Philips
