* BCY79-9
* bjt/pnp/bcy79-9.mod

.model BCY79-9 PNP(Is=55.58p Xti=3 Eg=1.11 Vaf=62.37 Bf=361.2 Ise=160.7p Ne=3.065 Ikf=98.02m Nk=.5 Xtb=1.5 Br=2.429 Isc=34.94n Nc=2.499 Ikr=1.387 Rc=2.829 Cjc=16p Mjc=.3333 Vjc=.5 Fc=.5 Cje=16.78p Mje=.3333 Vje=.5 Tr=267n Tf=763.1p Itf=5.112 Xtf=203.8 Vtf=10 Vceo=45 Icrating=100m mfg=Philips)
