* BCY78-8
* bjt/pnp/bcy78-8.mod

.model BCY78-8 PNP(Is=55.58p Xti=3 Eg=1.11 Vaf=79.03 Bf=272.6 Ise=223.2p Ne=2.939 Ikf=77.89m Nk=.5 Xtb=1.5 Br=2.429 Isc=34.94n Nc=2.499 Ikr=1.387 Rc=2.829 Cjc=16p Mjc=.3333 Vjc=.5 Fc=.5 Cje=16.78p Mje=.3333 Vje=.5 Tr=272.7n Tf=762.4p Itf=5.969 Xtf=203.6 Vtf=10 Vceo=32 Icrating=100m mfg=Philips)
