* BCY79-10
* bjt/pnp/bcy79-10.mod

.model BCY79-10 PNP(Is=55.58p Xti=3 Eg=1.11 Vaf=35.7 Bf=523.4 Ise=161.8p Ne=2.89 Ikf=70.98m Xtb=1.5 Br=2.429 Isc=34.94n Nc=2.499 Ikr=1.387 Rc=2.829 Cjc=16p Mjc=.3333 Vjc=.5 Fc=.5 Cje=16.78p Mje=.3333 Vje=.5 Tr=262.5n Tf=763p Itf=5.411 Xtf=180.8 Vtf=10)

* Nk: .5
* Vceo: 45
* Icrating: 100m
* mfg: Philips
