* BD138F
* bjt/pnp/bd138f.mod

.MODEL BD138F PNP(IS=2.9537E-13 ISE=1.8002E-13 ISC=7.0433p XTI=3 BF=201.4 BR=23.765 IKF=1.0993 IKR=0.10 XTB=1.4883 VAF=137.0 VAR=8.41 VJE=0.7211 VJC=0.5499 RE=0.01 RC=0.1 RB=1.98 RBM=0.01 IRB=0.011 CJE=2.1982E-10 CJC=6.8291E-11 XCJC=0.5287 FC=0.5 NF=1.0 NR=1.021 NE=1.5 NC=1.38 MJE=0.3685 MJC=0.3668 EG=1.2343 VCEO=60 ICRATING=1.5 MFG=FAIRCHILD)
