* BD140_CORDELL
* bjt/pnp/bd140_cordell.mod

.MODEL BD140_Cordell pnp IS=120f BF=113 VAF=140 IKF=1.5 ISE=1000f NE=1.5 NF=1 RB=5 RC=0.01 RE=0.1 CJE=220p MJE=0.35 VJE=0.7 CJC=68p MJC=0.35 VJC=0.6 XCJC=0.5 FC=0.5 TF=320p XTF=10000 VTF=35 ITF=20 TR=100n BR=25 IKR=0.1 EG=1.2 XTB=1.5 XTI=3 NC=1.4 ISC=7p NR=1.0 VAR=8 IRB=0.01 RBM=0.01

* mfg: CA041311
