* BD166
* bjt/pnp/bd166.mod

.MODEL BD166 PNP (BF=68.588 BR=5 CJC=5P CJE=2P IKF=291.742824770597M IKR=1000 IS=10F ISC=100P ISE=1.025255687498P ITF=12.665625454832M MJC=0.5 MJE=0.5 NC=2.000000002364 NE=1.571835481126 RE=0.5 TF=18.162056423086N TR=10N VAF=100 VTF=10 XTF=0.5)

* Vceo: 45
* Icrating: 1.5
