* BD238
* bjt/pnp/bd238.mod

.MODEL bd238 pnp IS=6.82166e-13 BF=112.18 NF=0.852203 VAF=88.5742 IKF=0.971633 ISE=6.55349e-12 NE=3.38335 BR=4.87698 NR=0.829022 VAR=4.07273 IKR=6.06127 ISC=3.89994e-13 NC=3.99 RB=9.80893 IRB=0.1 RBM=0.1 RE=0.000963169 RC=0.239477 XTB=0.100036 XTI=1.0218 EG=1.206 CJE=6.4357e-08 VJE=0.569245 MJE=0.494207 TF=1e-08 XTF=1.35725 VTF=0.99604 ITF=0.999923 CJC=4.44225e-10 VJC=0.400202 MJC=0.41017 XCJC=0.803125 FC=0.59817 TR=100n PTF=0
