* BD438
* bjt/pnp/bd438.mod

.MODEL bd438 pnp IS=5.98934e-11 BF=183.991 NF=1.127 VAF=21.7853 IKF=6.2324 ISE=4.75017p NE=3.46873 BR=3.76807 NR=0.753494 VAR=6.28524 IKR=3.28572 ISC=4.75e-13 NC=3.96875 RB=13.6523 IRB=0.1 RBM=0.108939 RE=0.000637295 RC=0.00318648 XTB=0.104451 XTI=1 EG=1.1019 CJE=4.99274e-08 VJE=0.606966 MJE=0.432728 TF=1e-08 XTF=1.36423 VTF=0.997185 ITF=0.986562 CJC=4.44441e-10 VJC=0.40011 MJC=0.4107 XCJC=0.803121 FC=0.574598 TR=1e-07
