* BD440
* bjt/pnp/bd440.mod

.MODEL BD440 PNP(Is=632.4f Xti=3 Eg=1.11 Vaf=100 Bf=112.1 Ise=962.8f Ne=1.373 Ikf=2.187 Xtb=2.1 Br=66.4 Isc=974.4f Nc=1.207 Ikr=125.8 Rc=.2066 Cjc=508.9p Mjc=.4847 Vjc=.75 Fc=.5 Cje=379.8p Mje=.4937 Vje=.75 Tr=89.17n Tf=17.41n Itf=5.921 Xtf=1.062 Vtf=10 Rb=.1

* Nk: .6196
* Vceo: 80
* Icrating: 4
* mfg: Philips
