* BD908
* bjt/pnp/bd908.mod

.model bd908 pnp IS=1n BF=350 NF=1.009 VAF=100 IKF=3.571E-01 ISE=2.107E-08 NE=1.897 BR=4.056 VAR=50 ISC=0 NC=2 RB=1.297 RE=2.911E-02 RC=1.674E-01 CJE=1.400E-08 VJE=7.500E-01 MJE=3.300E-01 TF=2.767E-08 XTF=7.974E-01 ITF=3.675E+01 PTF=0 CJC=4.267E-10 VJC=0.22 MJC=3.49E-01 TR=270n XTB=0 EG=1.11 XTI=1.5 FC=0.5
