* BD912
* bjt/pnp/bd912.mod

.model BD912 PNP(IS=1n BF=3.500E+02 NF=1.009 VAF=1.000E+02 IKF=3.571E-01 ISE=2.107E-08 NE=1.897 BR=4.056 VAR=50 IKR=1.000E+09 ISC=0.000E+00 NC=2.000E+00 RB=1.297 IRB=1 RBM=1.297 RE=2.911E-02 RC=1.674E-01 CJE=1.400E-08 VJE=7.500E-01 MJE=3.300E-01 TF=2.767E-08 XTF=7.974E-01 VTF=9.990E+05 ITF=3.675E+01
