* BDP952
* bjt/pnp/bdp952.mod

.MODEL BDP952 PNP(IS=0.800p ISE=0.309p ISC=0.200p XTI=5.0 BF=250 BR=44.0 IKF=0.700 IKR=1.0 XTB=2.0 VAF=70.500 VAR=7.840 VJE=0.921 VJC=0.775 RE=50.000m RC=59.947m RB=0.250 RBM=0.200 IRB=10.000m CJE=0.390n CJC=0.139n XCJC=0.720 FC=0.500 NF=0.995 NR=1.0 NE=2.330 NC=1.079 MJE=0.430 MJC=0.49 TF=0.73n TR=0.1u PTF=1 ITF=0.6 VTF=2 XTF=1 EG=1.125)

* VCEO: 100
* ICRATING: 3
* MFG: SIEMENS
