* BDX78
* bjt/pnp/bdx78.mod

.model BDX78 PNP(Is=1.554p Xti=3 Eg=1.11 Vaf=100 Bf=257.6 Ise=14.36p Ne=1.662 Ikf=1.865 Xtb=1.5 Br=1.749 Isc=48.91p Nc=1.594 Ikr=.2185 Rc=54.28m Cjc=340.1p Mjc=.3333 Vjc=.5 Fc=.5 Cje=1.02n Mje=.3333 Vje=.5 Tr=1u Tf=11.41n Itf=85.35 Xtf=9.975 Vtf=10)

* Nk: .6053
* Vceo: 80
* Icrating: 8
* mfg: Philips
