* BF423
* bjt/pnp/bf423.mod

.MODEL BF423 PNP( IS=9.124f NF=0.9904 ISE=1.672f NE=1.527 BF=198.2 IKF=0.13 VAF=465.9 NR=0.99 ISC=2.139E-13 NC=1.08 BR=1.256 IKR=0.1 VAR=13 RB=5 IRB=1u RBM=0.5 RE=0.635 RC=1.42 XTB=0 EG=1.11 XTI=3 CJE=1.447E-11 VJE=0.8484 MJE=0.3884 TF=1.38n XTF=21.78 VTF=2 ITF=0.065 CJC=8.483p VJC=0.6298 MJC=0.4561 XCJC=0.619 TR=10n FC=0.99)

* mfg: Philips
