* BF450
* bjt/pnp/bf450.mod

.MODEL BF450 PNP(IS=8.083E-16 ISE=8.858E-16 ISC=2.382E-16 XTI=3 BF=114.1 BR=4.502 IKF=0.03 IKR=0.00056 XTB=1.5 VAF=37.65 VAR=10 VJE=0.6822 VJC=0.6482 RE=0.8 RC=2.28 RB=1 RBM=0.5 IRB=1E-06 CJE=1.86p CJC=1.19p XCJC=0.828 FC=0.9297 NF=0.9985 NR=0.9859 NE=1.45 NC=1 MJE=0.2643 MJC=0.3185 TF=1.633E-10 TR=1m2 ITF=0.07408 VTF=1.864 XTF=11.46 EG=1.11)

* VCEO: 40
* ICRATING: 25m
* MFG: PHILIPS
