* BF621
* bjt/pnp/bf621.mod

.MODEL BF621 PNP(IS=4E-14 ISE=8f ISC=8p XTI=3 BF=105 BR=4 IKF=800m IKR=55m XTB=1.5 VAF=300 VAR=40 VJE=0.65 VJC=0.536 RE=0.1 RC=0.1 RB=9 CJE=80.9p CJC=16.9p XCJC=0.75 FC=0.5 NF=1.01 NR=1 NE=1.38 NC=1.3 MJE=0.382 MJC=0.382 TF=0.7n TR=1.6E-6 EG=1.11 GAMMA=0.85E-7 RCO=59)

* VCEO: 300
* ICRATING: 50m
* MFG: ZETEX
