* BF824
* bjt/pnp/bf824.mod

.MODEL BF824 PNP(IS=2.948E-16 ISE=1.879E-14 ISC=2.21f XTI=3 BF=42 BR=1.5 IKF=0.05266 IKR=0.05 XTB=1.5 VAF=35 VAR=33.62 VJE=0.7113 VJC=0.4038 RE=0.1038 RC=4.2 RB=1 RBM=0.5 IRB=1E-06 CJE=2.453p CJC=3.237p XCJC=0.0464 FC=0.8618 NF=0.99 NR=0.9809 NE=2.469 NC=1.25 MJE=0.3218 MJC=0.3117 TF=2.602E-10 TR=1m2 ITF=0.1748 VTF=2.773 XTF=9.349 EG=1.11)

* VCEO: 30
* ICRATING: 25m
* MFG: PHILIPS
