* BFT44
* bjt/pnp/bft44.mod

.model BFT44 PNP(Is=7.34n Xti=3 Eg=1.11 Vaf=100 Bf=131.8 Ise=7.34n Ne=1.593 Ikf=.862 Nk=.7194 Xtb=1.5 Br=1 Isc=2.155u Nc=2.236 Ikr=4.712 Rc=3.255 Cjc=44.37p Mjc=.3333 Vjc=.5 Fc=.5 Cje=133.1p Mje=.3333 Vje=.5 Tr=10n Tf=1.576n Itf=9.045 Xtf=221.6 Vtf=10 Vceo=300 Icrating=500m mfg=Philips)
