* BSS80C
* bjt/pnp/bss80c.mod

.model BSS80C PNP(Is=9.744f Xti=3 Eg=1.11 Vaf=100 Bf=348.4 Ise=15.57p Ne=2.076 Ikf=.8077 Nk=.8941 Xtb=1.5 Br=1.729 Isc=9.826n Nc=2.227 Ikr=1.336 Rc=1.633 Cjc=16.99p Mjc=.4804 Vjc=.5 Fc=.5 Cje=51p Mje=.3333 Vje=.5 Tr=82.75n Tf=504.1p Itf=11.14 Xtf=535.9 Vtf=10 Vceo=40 Icrating=800m mfg=Siemens)
