* BSS82B
* bjt/pnp/bss82b.mod

.model BSS82B PNP(Is=9.744f Xti=3 Eg=1.11 Vaf=100 Bf=144.2 Ise=1.345p Ne=1.642 Ikf=1.079 Nk=.8891 Xtb=1.5 Br=1.985 Isc=6.583n Nc=2.16 Ikr=.9399 Rc=1.678 Cjc=16.99p Mjc=.4804 Vjc=.5 Fc=.5 Cje=51p Mje=.3333 Vje=.5 Tr=82.44n Tf=504.8p Itf=8.87 Xtf=627.8 Vtf=10 Vceo=60 Icrating=800m mfg=Siemens)
