* BSV15-6
* bjt/pnp/bsv15-6.mod

.model BSV15-6 PNP(Is=70.49f Xti=3 Eg=1.11 Vaf=100 Bf=78.81 Ise=795.9f Ne=1.5 Ikf=.9977 Xtb=1.5 Br=18.45 Isc=715.1f Nc=1.23 Ikr=1.222 Rc=.8335 Cjc=47.58p Mjc=.3333 Vjc=.5 Fc=.5 Cje=212.4p Mje=.3333 Vje=.5 Tr=391.7n Tf=1.983n Itf=11.92 Xtf=64.06 Vtf=10)

* Nk: .6579
* Vceo: 40
* Icrating: 1
* mfg: Philips
