* BSV15-10
* bjt/pnp/bsv15-10.mod

.model BSV15-10 PNP(Is=70.49f Xti=3 Eg=1.11 Vaf=100 Bf=118.4 Ise=681f Ne=1.558 Ikf=.5245 Xtb=1.5 Br=18.45 Isc=715.1f Nc=1.23 Ikr=1.222 Rc=.8335 Cjc=47.58p Mjc=.3333 Vjc=.5 Fc=.5 Cje=212.4p Mje=.3333 Vje=.5 Tr=304.6n Tf=1.977n Itf=11.86 Xtf=55.69 Vtf=10)

* Nk: .525
* Vceo: 40
* Icrating: 1
* mfg: Philips
