* BSV17-10
* bjt/pnp/bsv17-10.mod

.model BSV17-10 PNP(Is=70.49f Xti=3 Eg=1.11 Vaf=100 Bf=118.4 Ise=681f Ne=1.558 Ikf=.5245 Nk=.525 Xtb=1.5 Br=18.45 Isc=715.1f Nc=1.23 Ikr=1.222 Rc=.8335 Cjc=36.44p Mjc=.3333 Vjc=.5 Fc=.5 Cje=213.4p Mje=.3333 Vje=.5 Tr=304.6n Tf=1.98n Itf=14.64 Xtf=81.44 Vtf=10 Vceo=90 Icrating=1 mfg=Philips)
