* BSV15-16
* bjt/pnp/bsv15-16.mod

.model BSV15-16 PNP(Is=70.49f Xti=3 Eg=1.11 Vaf=100 Bf=180.1 Ise=735.8f Ne=1.64 Ikf=.6947 Xtb=1.5 Br=18.45 Isc=715.1f Nc=1.23 Ikr=1.222 Rc=.8335 Cjc=47.58p Mjc=.3333 Vjc=.5 Fc=.5 Cje=212.4p Mje=.3333 Vje=.5 Tr=262.5n Tf=1.981n Itf=14.46 Xtf=75.99 Vtf=10)

* Nk: .596
* Vceo: 40
* Icrating: 1
* mfg: Philips
