* DSA8102
* bjt/pnp/dsa8102.mod

.MODEL DSA8102 PNP IS=285f BF=167.62 VAF=34 IKF=4.6 ISE=1.72f NE=1.2832 BR=10 VAR=5.9 IKR=180m ISC=250f NC=1.1464 RE=0.15 RB=0.075 RC=0.18 CJE=107.02p VJE=0.87293 MJE=0.44464 CJC=30.032p VJC=0.42134 MJC=0.26843 FC=0.8 TF=1.0412n XTF=2.2909 VTF=2.2796k ITF=1.7986 TR=10n XTB=1.77 XTI=4.0

* NK: 1
