* DSS5220V
* bjt/pnp/dss5220v.mod

.model DSS5220V PNP(Is=2f Xti=3 Eg=1.11 Vaf=100 Bf=513.3 Ise=2f Ne=3.535 Ikf=.8893 Nk=.3933 Xtb=1.5 Br=46.02 Isc=18.73f Nc=1.396 Ikr=.3797 Rc=94.13m Cjc=53p Mjc=.3235 Vjc=.3991 Cje=150p Mje=1.026 Vje=3.109 Tr=5.947n Tf=941.6p Vceo=20 Icrating=2 mfg=Diodes)
