* FCX790A
* bjt/pnp/fcx790a.mod

.MODEL FCX790A PNP IS=1.09684p NF=1.0102 BF=650 IKF=1.7 VAF=23.5 ISE=9.88593E-14 NE=1.47256 NR=1.00391 BR=270 IKR=0.2 VAR=30 ISC=5.4933E-14 NC=1.07427 RB=0.055 RE=0.049 RC=0.078 CJC=96p MJC=0.495 VJC=0.67 CJE=275p TF=0.75n TR=10.8n XTB=1.4 TRE1=.0025 TRB1=.0025 TRC1=.0025

* NK: 0.75
* Vceo: 45
* Icrating: 2
* mfg: Zetex
