* FJL4215
* bjt/pnp/fjl4215.mod

.model FJL4215 PNP IS=1.30E-10 BF=91.42 VAF=100 IKF=4.480 ISE=1.02E-10 NE=2 VAR=100 ISC=5.0900n NC=1.5 BR=0.882 IKR=2.9015 RE=0.0011 RC=0.0553 RB=140.05 RBM=0.0041 IRB=8.5n CJE=2.00E-10 FC=0.5 CJC=9.45E-10 VJC=0.48 MJC=0.28 TF=9.250E-10 XTF=10 VTF=10 ITF=1 TR=1.00E-8 EG=0.76 XTB=2.68 Vceo=250 Icrating=17 MFG=Fairchild
