* FJP1943
* bjt/pnp/fjp1943.mod

.MODEL FJP1943 pnp (IS=6.04896E-11 BF=200.2 NF=1 BR=8.805 NR=1.0 ISE=8.24807n NE=2 ISC=4.01764E-10 NC=1.5 VAF=18.7 VAR=20 IKF=2.2182 IKR=0.19087 RB=1.1 RBM=0.000011 IRB=1.51189n RE=0.00611 RC=0.0103 CJE=1.132025E-10 VJE=0.711 MJE=0.304 FC=0.5 CJC=6.88229E-10 VJC=0.84 MJC=0.25 TF=5.3703E-9 TR=3.342E-7 XTB=2.28 EG=0.81 XTI=3)
