* FMMT560
* bjt/pnp/fmmt560.mod

.MODEL FMMT560 PNP IS=4E-14 NF=0.98 BF=140 VAF=104 ISE=1p NE=1.54 RCO=100 GAMMA=1.5E-7 NR=1 BR=2 VAR=100 ISC=1e-13 NC=2 IKR=10m RB=25 RE=.3 RC=.3 CJC=29p MJC=0.364 VJC=0.511 CJE=100.3p MJE=0.419 VJE=0.877 TF=2E-10 TR=1.5e-6 XTB=1.5 QUASIMOD=1

* Vceo: 500
* Icrating: 150m
* mfg: Zetex
