* FMMT723
* bjt/pnp/fmmt723.mod

.MODEL FMMT723 PNP IS=5.5E-13 BF=440 IKF=1 VAF=50.88 ISE=1.554E-13 NE=1.477 NR=1.03 BR=30 IKR=0.7 VAR=13.79 ISC=1.3p NC=1.198 RB=1.5 RE=0.02 RC=0.14 CJC=45.74p MJC=0.4889 VJC=0.711 CJE=204.3p MJE=0.5105 VJE=0.9711 TF=0.63n TR=95n Vceo=100 Icrating=1 mfg=Zetex
