* FMMT558
* bjt/pnp/fmmt558.mod

.MODEL FMMT558 PNP IS=7.84E-14 NF=1 BF=210 IKF=1.8 VAF=349 ISE=3.35E-14 NE=1.69 NR=1 BR=3.4 IKR=0.15 VAR=82 ISC=9.42p NC=1.05 RB=0.5 RE=0.1 RC=0.1 QUASIMOD=1 RCO=54 GAMMA=13e-6 CJC=20.5p MJC=0.38 VJC=0.44 CJE=115p MJE=0.43 VJE=0.85 TF=0.9n TR=18E-5 TRC1=.015 TRB1=.015 TRE1=.015 XTB=1.4 Vceo=400 Icrating=0.15 mfg=Zetex
