* FMMT718
* bjt/pnp/fmmt718.mod

.MODEL FMMT718 PNP IS=6.8E-13 BF=480 IKF=2 VAF=23 ISE=0.8E-13 NE=1.5567 NR=1 BR=70 IKR=0.4 VAR=7 ISC=7.5E-14 NC=1.19 RB=0.085 RE=0.04 RC=0.045 CJC=70.02p MJC=0.4685 VJC=0.7714 CJE=203.6p MJE=0.5029 VJE=0.9403 TF=0.71n TR=23.7n

* Vceo: 20
* Icrating: 1.5
* mfg: Zetex
