* FMMT717
* bjt/pnp/fmmt717.mod

.MODEL FMMT717 PNP IS=5.5E-13 BF=500 IKF=3 VAF=14.93 ISE=1.75E-13 NE=1.5 NR=1 BR=280 IKR=0.3 VAR=5.64 ISC=6.01E-13 NC=1.34 RB=0.3 RE=0.03 RC=0.025 CJC=116.9p MJC=0.3456 VJC=0.4576 CJE=223.6p MJE=0.4803 VJE=0.9091 TF=1.2n TR=2n

* Vceo: 12
* Icrating: 2.5
* mfg: Zetex
