* FMMT555
* bjt/pnp/fmmt555.mod

.MODEL FMMT555 PNP IS=1.3E-13 NF=1 BF=220 IKF=1.2 VAF=110 ISE=3E-14 NE=1.5 RCO=12 GAMMA=3E-8 NR=1 BR=8 VAR=15.5 ISC=1e-13 NC=1.06 RB=5 RE=0.2 RC=0.2 QUASIMOD=1 XTB=1.4 CJC=28p MJC=0.45 VJC=0.736 CJE=112p TF=0.7n TR=2e-7

* mfg: Zetex
