* FZT1147A
* bjt/pnp/fzt1147a.mod

.MODEL FZT1147A PNP IS=1.272p NF=0.989 ISE=2.5e-13 NE=1.65 BF=500 VAF=14.59 IKF=8 NR=1 ISC=8e-14 NC=1.6 BR=90 VAR=3.1 IKR=1.2 RE=15m RB=145m RC=13m CJE=560p CJC=255p VJC=0.6288 MJC=0.4048 TF=1.2n TR=13n Vceo=12 Icrating=5 mfg=Zetex
