* FZT968
* bjt/pnp/fzt968.mod

.MODEL FZT968 PNP IS=3.58p NF=1.015 BF=500 IKF=11 VAF=11.4 ISE=1.576E-13 NE=1.42 NR=1.01 BR=245 IKR=1.4 VAR=8.4 ISC=1.48E-11 NC=1.637 RB=0.024 RE=0.0164 RC=0.0235 CJC=438p MJC=0.361 VJC=0.673 CJE=1.05n TF=1.38n TR=2.3n Vceo=12 Icrating=6 mfg=Zetex
