* GT308B
* bjt/pnp/gt308b.mod

.model GT308B pnp bf=800 br=.3 eg=0.72 cje=20p cjc=15p tf=1n tr=.4u xcjc=0.4 is=100n ikf=45m vaf=30 mje=0.5 mjc=0.5 rc=20 rb=80 rbm=10 irb=1m ise=25n ne=1.5 isc=.7u nc=1.4 mfg=GERMANIUM_USSR
