* GT322A
* bjt/pnp/gt322a.mod

.model GT322A pnp bf=100 br=.3 eg=0.72 cje=10p cjc=4p tf=1n tr=.4u xcjc=0.3 is=50n ikf=20m vaf=30 mje=0.5 mjc=0.5 rc=10 rb=40 ise=10n ne=1.5 isc=.5u nc=1.4_USSR

* mfg: GERMANIUM
