* KSA1015
* bjt/pnp/ksa1015.mod

.MODEL KSA1015 PNP (IS=3.09029E-14 BF=181.5 NF=1 BR=5.615 NR=1 ISE=1.7378E-14 NE=1.5 ISC=1.31826E-13 NC=1.5 VAF=56.5 VAR=10.8 IKF=1.21 IKR=0.0524807 NK=0.883 RB=9.5 RBM=4.72 IRB=5.623413E-7 RE=0.56 RC=5.4 CJE=1.7403E-11 VJE=0.777948 MJE=0.372295 FC=0.5 CJC=9.70035p VJC=0.523999 MJC=0.283255 XCJC=0.45 TF=1.99n XTB=1.182 EG=1.1574 XTI=3 mfg=Fairchild)
