* KSA1142
* bjt/pnp/ksa1142.mod

.MODEL KSA1142 PNP(IS=3.09029p BF=200.5 NF=1 BR=0.115 NR=1 ISE=1.7378E-13 NE=1.5 ISC=1.31826E-10 NC=1.5 VAF=146.5 VAR=100 IKF=0.121 IKR=0.524807 RB=30.5 RBM=0.20 IRB=2.623413E-7 RE=0.0016 RC=1.34 CJE=5.403E-11 VJE=0.777948 MJE=0.372295 FC=0.5 CJC=1.60035E-11 VJC=0.523999 MJC=0.343255 TF=5.09E-10 TR=1.0E-08 XTB=2.182EG=0.7074 XTI=3 KF=0 AF=1)

* Vceo: 180
* Icrating: 100m
* mfg: Fairchild
