* KSA1182
* bjt/pnp/ksa1182.mod

.MODEL KSA1182 pnp(IS=5.7544E-14 BF=254 NF=1 BR=11.42 NR=0.995 ISE=1.90546E-13 NE=2 ISC=5.24807p NC=2 VAF=714.539 VAR=10.31 IKF=0.47863 IKR=0.057544 RB=860 RBM=1.099 IRB=1.77828u RE=1.4 RC=1.8 CJE=3.172039E-11 VJE=0.748394 MJE=0.3714983 FC=0.5 CJC=1.947968E-11 VJC=0.5403711 MJC=0.3242059 TF=7.962E-10 XTB=1.7722 EG=1.2236 XTI=3)

* mfg: Fairchild
