* KSA992
* bjt/pnp/ksa992.mod

.MODEL KSA992 pnp ( IS=5.7544E-14 BF=348.1 NF=1 BR=3.62 NR=0.95 ISE=5.7544f NE=1.5 ISC=1.8378E-14 NC=1 VAF=144 VAR=16.68 IKF=0.298 IKR=0.0525 RB=140 RBM=16.084 IRB=1.4125m RE=0.38 RC=0.47 CJE=2.3093E-11 VJE=0.855 MJE=0.4104 FC=0.5 CJC=8.9251p VJC=0.5 MJC=0.3497 XTB=1.2849 EG=1.1603 XTI=3 XCJC=0.3062 )
