* KSE45H
* bjt/pnp/kse45h.mod

.MODEL KSE45H PNP IS=1.29p NF=0.976 ISE=3.981E-11 NE=2.0 BF=232.8 IKF=2.974 VAF=52.923 NR=0.979 ISC=1.873E-13 NC=1.043 BR=31.629 IKR=0.327 VAR=79.194 RB=100.0 IRB=9.1E-05 RBM=4.096 RE=0.001 RC=0.15 XTB=1.48 EG=1.148 XTI=3.0 CJE=8.38E-10 VJE=0.732 MJE=0.383 CJC=3.68E-10 VJC=0.457 MJC=0.34 XCJC=0.47 FC=0.5 Vceo=80 Icrating=10 MFG=Fairchild
