* KSP94
* bjt/pnp/ksp94.mod

.MODEL ksp94 PNP IS=1.41254E-13 NF=1.01971 ISE=1.74684E-14 NE=1.1055 BF=59.4 IKF=0.17378 VAF=8.02 NR=1.038 ISC=1.096478E-13 NC=0.9935 BR=15.7813 IKR=0.57894 VAR=7.84 RB=105.0 IRB=1.25893u RBM=1.20226 RE=0.03675 RC=0.43 XTB=1.9403 EG=1.1722 XTI=3.0 CJE=2.47E-10 VJE=0.824 MJE=0.397 CJC=3.85E-11 VJC=0.5 MJC=0.422 XCJC=0.612 FC=0.5
