* KT203V
* bjt/pnp/kt203v.mod

.model KT203v PNP(Is=459.4E-18 Xti=3 Eg=1.11 Vaf=46.32 Bf=76.19 Ise=1.666f Ne=1.288 Ikf=11.51m Xtb=1.5 Br=1.432 Isc=183.9f Nc=1.223 Ikr=.8622 Rb=280 Rc=.3177 Cjc=15.77p Mjc=.33 Vjc=.75 Fc=.5 Cje=93.8p Mje=.5729 Vje=.75 Tr=7.428u Tf=9.768n Itf=.3 Xtf=2 Vtf=10)

* Nk: .5
* mfg: USSR
