* KT208E
* bjt/pnp/kt208e.mod

.model KT208e PNP(Is=7.151f Xti=3 Eg=1.11 Vaf=46.32 Bf=138.9 Ne=1.934 Ise=5.84p Ikf=1.068 Xtb=1.5 Br=3.606 Nc=2 Isc=64f Ikr=.305 Rb=15 Rc=.4 Cjc=100p Mjc=.39 Vjc=.75 Fc=.5 Cje=93.8p Mje=.5729 Vje=.75 Tr=583.5n Tf=21.36n Itf=.3 Vtf=30 Xtf=1.5 mfg=USSR)
