* KT208D
* bjt/pnp/kt208d.mod

.model KT208d PNP(Is=8.347f Xti=3 Eg=1.11 Vaf=46.32 Bf=100 Ne=1.523 Ise=357.9f Ikf=.6605 Xtb=1.5 Br=3.606 Nc=2 Isc=64f Ikr=.305 Rb=15 Rc=.4 Cjc=100p Mjc=.39 Vjc=.75 Fc=.5 Cje=93.8p Mje=.5729 Vje=.75 Tr=718.4n Tf=25.14n Itf=.3 Vtf=30 Xtf=1.5 mfg=USSR)
