* KT208J
* bjt/pnp/kt208j.mod

.model KT208j PNP(Is=8.347f Xti=3 Eg=1.11 Vaf=46.32 Bf=99.51 Ne=1.913 Ise=64.3p Ikf=94.54m Xtb=1.5 Var=13 Br=12.49 Nc=2 Isc=64f Ikr=.305 Rb=13 Rc=.45 Cjc=100p Mjc=.39 Vjc=.75 Fc=.5 Cje=93.8p Mje=.5729 Vje=.75 Tr=383.4n Tf=30.35n Itf=.3 Vtf=45 Xtf=1.5)

* mfg: USSR
