* KT203B
* bjt/pnp/kt203b.mod

.model kt203b pnp is=300f bf=53.2 vaf=50 ikf=6.112m ise=22.18f ne=1.559 br=0.952 nr=0.94 var=55 ikr=4.5m isc=1.2p nc=2 rb=180 rc=13.6 cje=15.27p vje=0.69 mje=0.35 tf=14.64n xtf=1 vtf=15 itf=12.5m cjc=12.95p vjc=0.69 mjc=0.33 tr=144.4n xtb=1.5 eg=1.11 xti=3 fc=0.5 Vceo=30 Icrating=10m mfg=USSR
