* KT209M
* bjt/pnp/kt209m.mod

.model kt209m pnp bf=100 br=2.5 is=24f rb=100 rbm=40 irb=0.5m rc=1.8 ikf=70m xti=3 xtb=1.5 xtf=2 vaf=30 itf=.2 vtf=5 cje=25p xcjc=0.5 cjc=16p tf=8n tr=64n vjc=.67 mjc=.33 mje=.35 vje=.73 ne=1.5 ise=600f nc=2 isc=10p Vceo=60 Icrating=300m mfg=USSR
