* KT203A
* bjt/pnp/kt203a.mod

.model KT203a PNP(Is=459.4E-18 Xti=3 Eg=1.11 Vaf=85.5 Bf=29.73 Ise=14.21f Ne=1.406 Ikf=24.22m Xtb=1.5 Br=1.432 Isc=183.9f Nc=1.223 Ikr=.8622 Rb265 Rc=.3177 Cjc=15.77p Mjc=.33 Vjc=.75 Fc=.5 Cje=93.8p Mje=.5729 Vje=.75 Tr=10.33u Tf=20.58n Itf=.23 Xtf=2 Vtf=30)

* Nk: .5
* mfg: USSR
