* KT3107L
* bjt/pnp/kt3107l.mod

.model kt3107l pnp bf=800 br=5 is=.2p ikf=.1 xtb=1.5 cjc=7p cje=11p tf=.5n vaf=70 ikr=80m rc=.8 tr=30n rb=350 irb=10u xcjc=0.3 itf=80m vtf=50 kf=5.f xtf=1.2 eg=1.11 ne=1.2 ise=10f nc=2 isc=100p Vceo=20 Icrating=100m mfg=USSR
