* KT3108B
* bjt/pnp/kt3108b.mod

.model KT3108b PNP(Is=863E-18 Xti=3 Eg=1.11 Vaf=85 Bf=112.4 Ne=12.53 Ise=37.65n Ikf=27.99m Xtb=1.5 Var=26 Br=2.984 Nc=2 Isc=1.25p Ikr=56m Rb=52 Rc=4.24 Cjc=4.529p Vjc=.65 Mjc=.33 Fc=.5 Cje=3.763p Vje=.69 Mje=.33 Tr=43.55n Tf=292.3p Itf=58m Vtf=55 Xtf=2 mfg=USSR)
