* KT3129B
* bjt/pnp/kt3129b.mod

.model kt3129b pnp is=10f eg=1.11 vaf=60 bf=310 ikf=.14 br=6 var=12 rb=200 rbm=50 irb=30u rc=1. re=0.6 cjc=11p mjc=.56 vjc=.7 fc=.5 cje=16p mje=.64 vje=.7 tf=.5n tr=75n xcjc=0.3 xtb=1.5 xti=3 itf=10m vtf=10 xtf=.5 ne=1.46 ise=50f nc=2 isc=4.4p

* Vceo: 50
* Icrating: 100m
* mfg: USSR
