* KT3108V
* bjt/pnp/kt3108v.mod

.model KT3108v PNP(Is=1.41f Xti=3 Eg=1.11 Vaf=83 Bf=223.5 Ne=3.657 Ise=101p Ikf=35.11m Xtb=1.5 Br=1.655 Nc=2 Isc=114f Ikr=31m Rc=4.5 Rb=52 Cjc=4.372p Mjc=.33 Vjc=.75 Fc=.5 Cje=3.714p Mje=.33 Vje=.75 Tr=63.22n Tf=339.5p Itf=93m Vtf=40 Xtf=1.5 mfg=USSR)
