* KT313B
* bjt/pnp/kt313b.mod

.model kt313b pnp is=3.306f bf=153.6 vaf=86.3 ikf=2.47 ise=3.306f ne=1.36 br=3.375 var=40 ikr=.85 isc=33.2f nc=2 rb=23.2 rc=1.345 cje=30.64p vje=.69 mje=.33 tf=267.9p xtf=2 vtf=65 itf=.785 cjc=18.71p vjc=.69 mjc=.31 tr=58.87n xtb=1.5 eg=1.11 xti=3 fc=.5 Vceo=60 Icrating=350m mfg=USSR
