* KT3107A
* bjt/pnp/kt3107a.mod

.model KT3107A PNP (Is=6.545f Xti=3 Eg=1.11 Vaf=86.5 Bf=105.5 Ne=8.56 Mje=.35 Ise=7.735n Ikf=.186 Xtb=1.5 Var=32 Br=1.62 Nc=2 Isc=3.35p Ikr=12m Rb=39.1 Rc=.71 Cjc=12.8p Vjc=.65 Mjc=.33 Fc=.5 Cje=12.6p Vje=.69 Tr=30.5n Tf=477.5p Itf=56m Vtf=35 Xtf=2)

* mfg: USSR
