* KT313A
* bjt/pnp/kt313a.mod

.model KT313a PNP(Is=3.306f Xti=3 Eg=1.11 Vaf=86.3 Bf=153.6 Ne=1.36 Ise=3.306f Ikf=2.47 Xtb=1.5 Var=40 Br=3.375 Nc=2 Isc=33.2f Ikr=.85 Rb=23.2 Rc=1.345 Cjc=18.71p Vjc=.69 Mjc=.31 Fc=.5 Cje=30.64p Vje=.69 Mje=.33 Tr=58.87n Tf=267.9p Itf=.785 Vtf=65 Xtf=2 mfg=USSR)
