* KT326A
* bjt/pnp/kt326a.mod

.model KT326a PNP(Is=496.3E-18 Xti=3 Eg=1.11 Vaf=110 Bf=79.59 Ne=1.376 Ise=8.406f Ikf=.106 Xtb=1.5 Br=1 Isc=496.3E-18 Nc=1.636 Ikr=1u Rb=42 Rc=2.141 Cjc=3.7p Mjc=.33 Vjc=.75 Fc=.5 Cje=1.442p Mje=.33 Vje=.75 Tr=3.696u Tf=443.3p Itf=1 Xtf=2 Vtf=20)

* Nk: .5
* mfg: USSR
