* KT326B
* bjt/pnp/kt326b.mod

.model KT326b PNP(Is=16.64f Xti=3 Eg=1.11 Vaf=115 Bf=99.06 Ne=2.527 Ise=54.12p Ikf=.6751 Xtb=1.5 Var=63 Br=1.75 Nc=2 Isc=12.5f Ikr=.52 Rb=52.4 Rc=1.85 Cjc=4.089p Vjc=.69 Mjc=.33 Fc=.5 Cje=3.375p Vje=.75 Mje=.35 Tr=40.04n Tf=160.2p Itf=.1 Vtf=10 Xtf=2 mfg=USSR)
