* KT351A
* bjt/pnp/kt351a.mod

.model KT351a PNP(Is=4.943f Xti=3 Eg=1.11 Vaf=110 Bf=91.56 Ne=1.776 Ise=1.436p Ikf=.2116 Xtb=1.5 Var=25 Br=1.215 Nc=2 Isc=1.45p Ikr=.25 Rb=75 Rc=.44 Cjc=15.05p Vjc=.69 Mjc=.33 Fc=.5 Cje=24.48p Vje=.65 Mje=.33 Tr=223.6n Tf=217.4p Itf=.28 Vtf=35 Xtf=2 mfg=USSR)
