* KT357A
* bjt/pnp/kt357a.mod

.model KT357a PNP(Is=67.34f Xti=3 Eg=1.11 Vaf=80 Bf=70.83 Ise=746.1f Ne=1.452 Ikf=.1929 Xtb=1.5 Br=1 Isc=67.34f Nc=1.071 Ikr=2.269 Rc=3.665 Rb=50 Cjc=12.15p Mjc=.33 Vjc=.75 Fc=.5 Cje=18.5p Mje=.33 Vje=.75 Tr=275.6n Tf=160.9p Itf=56.6m Xtf=.3203 Vtf=40)

* Nk: .5153
* mfg: USSR
