* KT363A
* bjt/pnp/kt363a.mod

.model KT363a PNP(IS=867.6e-18 BF=64.79 BR=0.833 ISE=344f ISC=0 IKF=0.1481 IKR=0 NE=2.092 NC=2 VAF=100 RC=1.75 RB=10 TF=160.9p TR=18.34n XTF=1.5 VTF=3 ITF=0.6 CJE=5.881p VJE=0.75 MJE=0.4345 CJC=4.524p VJC=0.75 MJC=0.2226 FC=0.5 EG=1.11 XTB=1.5 XTI=3 mfg=USSR)
