* KT363B
* bjt/pnp/kt363b.mod

.model KT363B PNP(IS=0.9f BF=32 BR=1.18 NR=0.9 ISE=10f ISC=1p IKF=0.195 IKR=0.3 NE=1.971 NC=2 VAF=7 VAR=65 RC=8 RB=75 TF=41.32p TR=6.149n XTF=2 VTF=10 ITF=0.12 CJE=1.112p VJE=0.71 MJE=0.35 CJC=2.958p VJC=0.69 MJC=0.33 FC=0.5 EG=1.11 XTB=1.5 XTI=3 mfg=USSR)
