* KT361G
* bjt/pnp/kt361g.mod

.model kt361g pnp bf=350 br=5 is=400f rb=100 rbm=10 irb=50u rc=10 ikf=70m xti=3 xtb=1.5 xtf=1.1 vaf=70 itf=40m vtf=75 cje=20p xcjc=0.5 cjc=15p tf=0.3n tr=25n vjc=.7 mjc=.33 mje=.33 vje=.5 xcjc=0.15 ne=2 ise=315p nc=2 isc=600p Vceo=35 Icrating=100m mfg=USSR
