* KT363AM
* bjt/pnp/kt363am.mod

.model KT363am PNP(IS=545.6e-18 BF=76.77 BR=1.365 ISE=344f ISC=0 IKF=50m IKR=0 NE=1.5 NC=2 VAF=100 RC=3.75 RB=10 TF=115.5p TR=4.033n XTF=6 VTF=3 ITF=0.5 CJE=2.65p VJE=0.75 MJE=0.3083 CJC=2.77p VJC=0.75 MJC=0.1416 FC=0.5 EG=1.11 XTB=1.5 XTI=3 mfg=USSR)
