* KT505A
* bjt/pnp/kt505a.mod

.model KT505a PNP(Is=77.95f Xti=3 Eg=1.11 Vaf=98 Bf=242.4 Ise=890f Ne=1.403 Ikf=2.079 Xtb=1.5 Br=1.93 Isc=53.03p Nc=1.441 Ikr=81.42m Rb=8.3 Rc=.6239 Cjc=59.15p Mjc=.33 Vjc=.75 Fc=.5 Cje=474.3p Mje=.33 Vje=.65 Tr=810.9n Tf=3.558n Itf=8 Xtf=2 Vtf=40)

* Nk: .6286
* mfg: USSR
