* KT502B
* bjt/pnp/kt502b.mod

.model KT502b PNP(Is=3.48f Xti=3 Eg=1.11 Vaf=60 Bf=209.4 Ise=54.03f Ne=1.457 Ikf=27.44m Nk=.5 Xtb=1.5 Br=1.2 Isc=13.91f Nc=1.34 Ikr=2.077 Rb=15 Rc=1.133 Cjc=23.66p Mjc=.33 Vjc=.75 Fc=.5 Cje=26.53p Mje=.33 Vje=.75 Tr=712.7n Tf=7.62n Itf=1 Xtf=2 Vtf=25 mfg=USSR)
