* KT502E
* bjt/pnp/kt502e.mod

.model KT502e PNP(Is=3.48f Xti=3 Eg=1.11 Vaf=120 Bf=121.1 Ise=27.32f Ne=1.358 Ikf=74.95m Xtb=1.5 Br=1 Isc=13.91f Nc=1.34 Ikr=2.077 Rb=12 Rc=.9855 Cjc=23.66p Mjc=.33 Vjc=.75 Fc=.5 Cje=26.53p Mje=.33 Vje=.75 Tr=923.3n Tf=10.3n Itf=1 Xtf=2 Vtf=80)

* Nk: .4803
* mfg: USSR
