* KT502D
* bjt/pnp/kt502d.mod

.model KT502d PNP(Is=7.541f Xti=3 Eg=1.11 Vaf=115 Bf=118.7 Ise=73.88f Ne=1.396 Ikf=.1211 Xtb=1.5 Br=2.3 Isc=13.91f Nc=1.34 Ikr=2.077 Rb=15 Rc=1.2 Cjc=23.66p Mjc=.33 Vjc=.75 Fc=.5 Cje=26.53p Mje=.33 Vje=.75 Tr=484.6n Tf=12.96n Itf=1 Xtf=2 Vtf=50)

* Nk: .5237
* mfg: USSR
