* KT502V
* bjt/pnp/kt502v.mod

.model KT502v PNP(Is=7.541f Xti=3 Eg=1.11 Vaf=115 Bf=118.8 Ise=61.46f Ne=1.382 Ikf=.1498 Xtb=1.5 Br=2.3 Isc=13.91f Nc=1.34 Ikr=2.077 Rb=10 Rc=1.2 Cjc=23.66p Mjc=.33 Vjc=.75 Fc=.5 Cje=26.53p Mje=.33 Vje=.75 Tr=363.5n Tf=10.3n Itf=1 Xtf=2 Vtf=25)

* Nk: .593
* mfg: USSR
