* KT632A
* bjt/pnp/kt632a.mod

.model KT632a PNP(Is=14.34f Xti=3 Eg=1.11 Vaf=106 Bf=157.2 Ise=107f Ne=1.424 Ikf=.1495 Xtb=1.5 Br=.85 Isc=8.399p Nc=2.28 Ikr=.1449 Rb=44.3 Rc=3.208 Cjc=9.073p Mjc=.33 Vjc=.7 Fc=.5 Mje=.33 Cje=25.11p Vje=.65 Tr=1.49u Tf=531.4p Itf=65.94m Xtf=.2 Vtf=40)

* Nk: .4496
* mfg: USSR
