* KT818G
* bjt/pnp/kt818g.mod

.MODEL KT818G PNP (IS=4.4759p BF=101.08 VAF=100 IKF=3.9089 ISE=1.8829n NE=1.8721 BR=499.50 VAR=100 IKR=18.443 ISC=2.0748n NC=1.5432 RB=.57769 RC=.3189 CJE=2.3713n MJE=.33333 CJC=1.1831n MJC=.33333 TF=13.905n XTF=10 VTF=10 ITF=1 TR=418.88n)

* NK: .55074
* Vceo: 100
* Icrating: 10000
* mfg: USSR
