* KT816A
* bjt/pnp/kt816a.mod

.model KT816a PNP(Is=61.09f Xti=3 Eg=1.11 Vaf=63 Bf=210.7 Ise=1.298p Ne=1.571 Ikf=.4055 Xtb=1.5 Br=1.216 Isc=1.831p Nc=1.514 Ikr=.7536 Rc=.1198 Cjc=129.88p Mjc=.3333 Vjc=.75 Fc=.5 Cje=110.3p Mje=.3535 Vje=.75 Tr=391.3n Tf=23.31n Itf=1 Xtf=2 Vtf=10)

* Nk: .5019
* Vceo: 40
* Icrating: 3
* mfg: USSR
