* KT8102
* bjt/pnp/kt8102.mod

.model kt8102 pnp is=4.63971p bf=760.901 vaf=100 ikf=4.35839 ise=522.607f ne=1.14076 br=2 ikr=9.97108k isc=12.541f re=75.3313m rc=228.01m cje=5p mje=500m tf=15.1341n xtf=500.003m vtf=10 itf=10.6983m cjc=5p mjc=500m tr=10n mfg=INTEGRAL
