* KT818A
* bjt/pnp/kt818a.mod

.model KT818a PNP(Is=150.1f Xti=3 Eg=1.11 Vaf=70 Bf=135.8 Ise=2.436p Ne=1.37 Ikf=6.563 Xtb=1.5 Br=1.6 Isc=2.847p Nc=1.564 Ikr=.24 Rc=74m Rb=1 Cjc=1.183n Mjc=.3333 Vjc=.75 Fc=.5 Cje=1.635n Mje=.3333 Vje=.75 Tr=2.65u Tf=20.02n Itf=.3063 Xtf=.8299 Vtf=10)

* Nk: .6668
* Vceo: 40
* Icrating: 10
* mfg: USSR
