* KT814A
* bjt/pnp/kt814a.mod

.model KT814a PNP(Is=11.45f Xti=3 Eg=1.11 Vaf=62.37 Bf=176.8 Ise=88.24f Ne=1.411 Ikf=.3656 Xtb=1.5 Br=1.238 Isc=269.4f Nc=1.51 Ikr=1.275 Rc=.1654 Rb=4 Cjc=88.73p Mjc=.3333 Vjc=.75 Fc=.5 Cje=71.14p Mje=.33 Vje=.75 Tr=2.046u Tf=26.36n Itf=3 Xtf=5 Vtf=10)

* Nk: .6491
* Vceo: 40
* Icrating: 1.5
* mfg: USSR
