* KT814B
* bjt/pnp/kt814b.mod

.model KT814b PNP(Is=11.45f Xti=3 Eg=1.11 Vaf=72.62 Bf=128.7 Ise=97.57f Ne=1.421 Ikf=.2157 Nk=.4096 Xtb=1.5 Br=1.928 Isc=637.6f Nc=1.41 Ikr=.5927 Rc=.2979 Rb=4 Cjc=88.73p Mjc=.3333 Vjc=.75 Fc=.5 Cje=71.14p Mje=.3333 Vje=.75 Tr=2.046u Tf=26.36n Itf=3 Xtf=5 Vtf=10 Vceo=50 Icrating=1.5 mfg=USSR)
