* KT818B
* bjt/pnp/kt818b.mod

.model KT818b PNP(Is=150.1f Xti=3 Eg=1.11 Vaf=80 Bf=179.1 Ise=1.171p Ne=1.321 Ikf=5.846 Nk=.6543 Xtb=1.5 Br=1.6 Isc=2.847p Nc=1.564 Ikr=.24 Rc=74m Rb=1 Cjc=1.183n Mjc=.3333 Vjc=.75 Fc=.5 Cje=1.635n Mje=.3333 Vje=.75 Tr=2.203u Tf=20.02n Itf=.3063 Xtf=.8299 Vtf=10 Vceo=50 Icrating=10 mfg=USSR)
