* KT816V
* bjt/pnp/kt816v.mod

.model KT816v PNP(Is=61.09f Xti=3 Eg=1.11 Vaf=85 Bf=100.3 Ise=862.2f Ne=1.481 Ikf=1.642 Xtb=1.5 Br=1.453 Isc=1.831p Nc=1.514 Ikr=.7536 Rc=.1198 Cjc=130.06p Mjc=.3333 Vjc=.75 Fc=.5 Cje=100.8p Mje=.3333 Vje=.75 Tr=465.1n Tf=31.79n Itf=1 Xtf=2 Vtf=10)

* Nk: .5695
* Vceo: 60
* Icrating: 3
* mfg: USSR
