* KT837K
* bjt/pnp/kt837k.mod

.model KT837K PNP(IS=100p BF=100 BR=3 ISE=900p ISC=10n IKF=5 NE=1.9 NC=2 VAF=50 RC=0.1 RB=0.4 TF=30n TR=970n XTF=2 VTF=10 ITF=20 CJE=370p VJE=0.75 MJE=0.33 CJC=420p VJC=0.75 MJC=0.33 FC=0.5 EG=1.11 XTB=1.5 XTI=3 Vceo=45 Icrating=8 mfg=USSR)
