* KT830A
* bjt/pnp/kt830a.mod

.model KT830a PNP(Is=40.74f Xti=3 Eg=1.11 Vaf=65 Bf=132.5 Ne=1.782 Ise=3.717p Ikf=.936 Xtb=1.5 Var=40 Br=.626 Nc=2 Isc=3.7p Ikr=.96 Rb=9 Rc=.25 Cjc=131.2p Mjc=.33 Vjc=.75 Fc=.5 Cje=114.7p Mje=.35 Vje=.65 Tr=3.056u Tf=17.31n Itf=.95 Vtf=25 Xtf=2)

* mfg: USSR
