* KT830V
* bjt/pnp/kt830v.mod

.model KT830v PNP(Is=40.74f Xti=3 Eg=1.11 Vaf=95 Bf=108.8 Ne=1.731 Ise=3.085p Ikf=1.873 Xtb=1.5 Var=50 Br=0.751 Nc=2 Isc=3.1p Ikr=1.8 Rb=12 Rc=.35 Cjc=131.2p Mjc=.33 Vjc=.75 Fc=.5 Cje=114.7p Mje=.35 Vje=.65 Tr=3.056u Tf=17.31n Itf=1.8 Vtf=50 Xtf=2 mfg=USSR)
