* KT842A
* bjt/pnp/kt842a.mod

.model KT842a PNP(Is=120.1f Xti=3 Eg=1.11 Vaf=100 Bf=174.1 Ne=1.498 Ise=1.681p Ikf=5.206 Nk=.5749 Xtb=1.5 Br=1.302 Isc=3.044p Nc=1.426 Ikr=1.064 Rb=1 Rc=.2374 Cjc=557.4p Mjc=.3779 Vjc=.75 Fc=.5 Cje=3.051n Mje=.33 Vje=.75 Tr=825.9n Tf=5.126n Itf=25 Xtf=1.1 Vtf=40 mfg=USSR)
