* KT851
* bjt/pnp/kt851.mod

.model kt851 pnp is=100.801f bf=552.989 nf=1.0329 vaf=100 ikf=870.07m ise=24.0653f ne=1.19228 br=1.93375 ikr=10m isc=97.9119p re=207.275m rc=1.54572 cje=5p mje=500m tf=7.5517n xtf=500m vtf=10 itf=9.91801m cjc=5p mjc=500m tr=10n mfg=INTEGRAL
