* KT865
* bjt/pnp/kt865.mod

.model kt865 pnp is=196.519f bf=179.363 vaf=100 ikf=2.87385 ise=634.214f ne=1.25605 br=2 ikr=9.93273k isc=177.254f nc=2 re=16.408m rc=69.5017m cje=2.61852n vje=700m mje=499.936m tf=6.79763n xtf=500.002m vtf=10 itf=5.81566m cjc=856.505p vjc=700m mjc=500.242m tr=10n mfg=INTEGRAL
