* KT883
* bjt/pnp/kt883.mod

.model kt883 pnp is=8.67669f bf=149.922 nf=1.11422 vaf=100 ikf=467.086m ise=22.4516p ne=2.13339 br=2 ikr=263.268 isc=1.554726e-018 re=566.857m cje=589.164p vje=700m mje=499.924m tf=6.80804n xtf=500m vtf=10 itf=10.0067m cjc=128.324p vjc=700m mjc=499.679m tr=10n mfg=INTEGRAL
