* KT9115
* bjt/pnp/kt9115.mod

.MODEL KT9115 PNP (IS=9.76087F BF=290.589 NF=1.02655 VAF=100 IKF=97.7242M ISE=155.803F NE=1.70173 BR=1.99753 IKR=10M ISC=99.9881P RE=2.02804 RC=160.272M CJE=45.8458P VJE=699.999M MJE=500.813M CJC=12.0342P VJC=1 MJC=482.727M FC=500M TF=1.61261N XTF=499.997M VTF=10 ITF=10.023M TR=10N)

* Vceo: 300
* Icrating: 0.1
* mfg: USSR
