* KT933A
* bjt/pnp/kt933a.mod

.model KT933a PNP(Is=18.19f Xti=3 Eg=1.11 Vaf=78 Bf=122.8 Ise=86.44f Ne=1.284 Ikf=.2819 Xtb=1.5 Br=1 Isc=57.65p Nc=2.096 Ikr=1.637 Rb=11 Rc=1.538 Cjc=39.2p Mjc=.4435 Vjc=.75 Fc=.5 Cje=23.31p Mje=.201 Vje=.75 Tr=202.1n Tf=313.9p Itf=2.51 Xtf=1.52 Vtf=40)

* Nk: .4822
* mfg: USSR
