* MJ21193
* bjt/pnp/mj21193.mod

.MODEL mj21193 pnp IS=2.11472e-10 BF=286.381 NF=1.1016 VAF=1000 IKF=3.10565 ISE=1.63547e-08 NE=2.06994 BR=0.00431616 NR=1.78217 VAR=1.71712 IKR=10 ISC=2.56806e-13 NC=3.96746 RB=2.81058 IRB=1p RBM=1.04377 RE=0.00951621 RC=0.047581 XTB=0.1 XTI=0.01 EG=1.05 CJE=6.08799e-08 VJE=0.99 MJE=0.391391 TF=1.90715e-08 XTF=1.24582 VTF=12.9644 ITF=4.57909 CJC=2.19003n VJC=0.0988421 MJC=0.34222 XCJC=0.744224 FC=1e-21 TR=1e-07
