* MJ6503
* bjt/pnp/mj6503.mod

.MODEL MJ6503 PNP (BF=151.123 BR=79.46m CJC=811.1p CJE=3.019n FC=500m IKF=1.0035 IKR=1.041683410264 IS=10.004f ISC=.033496f ISE=98.238p ITF=10m MJC=431.592m MJE=420.792m NC=2 NE=1.61725 NF=868.661m RC=8.446m RE=75.92m TF=1n TR=65.23u VAF=100 VJC=700m VJE=998.57m VTF=10 XTF=500m_Semi)

* Vceo: 400
* Icrating: 8
* mfg: On
