* MJE15033_CORDELL
* bjt/pnp/mje15033_cordell.mod

.MODEL MJE15033_Cordell pnp IS=300p BF=160 VAF=500 IKF=3 ISE=10p NE=2 NF=1.3 RB=5 RBM=0.1 IRB=0.1 RC=0.5 CJE=3.1n MJE=0.35 VJE=0.65 RE=0.01 CJC=0.3n MJC=0.4 VJC=0.6 FC=0.5 TF=3.7n XTF=4 VTF=10 ITF=2 TR=100n BR=5 VAR=15 NR=1.5 EG=1.05 XCJC=0.8 XTB=0.22 XTI=1 NC=4 ISC=0.3p IKR=7.5

* mfg: CA041611
