* MJE15031
* bjt/pnp/mje15031.mod

.model mje15031 pnp IS=137.17p BF=150 NF=1.1308 VAF=200 IKF=4 BR=2.67 NR=1.13 VAR=500 RB=0.503 RBM=0.503 RE=0.01 RC=0.051 CJE=2000p VJE=0.342 MJE=0.4 TF=1.872n CJC=525p VJC=0.342 MJC=0.35 XCJC=0.5 TR=754n XTB=1.7145 EG=1.11 XTI=3 FC=0.5
