* MJE253_CORDELL
* bjt/pnp/mje253_cordell.mod

.MODEL MJE253_Cordell pnp IS=300f BF=150 VAF=310 IKF=1.2 ISE=30p NE=2 NF=1.015 RB=40 RC=0.3 RE=0.01 CJE=150p MJE=0.35 VJE=1 CJC=55p MJC=0.2 VJC=0.35 FC=0.55 TF=3300p XTF=7 VTF=10 ITF=5 TR=1000n BR=4 IKR=4.4 EG=1.05 XTB=1.3 XTI=0.01 NC=2.9 ISC=6e-13 NR=1.15 VAR=50 IRB=7u RBM=0.001 XCJC=0.8

* mfg: CA041611
