* MJE5852
* bjt/pnp/mje5852.mod

.MODEL MJE5852 pnp IS=4.84135e-11 BF=49.5599 NF=1.2559 VAF=17.4453 IKF=9.22751 ISE=1.61853p NE=3.62369 BR=2.68007 NR=1.32025 VAR=2.2277 IKR=5.04702 ISC=1.46595p NC=3.76353 RB=1.98711 IRB=0.1 RBM=0.1 RE=0.000292279 RC=0.105657 XTB=0.132887 XTI=1.10371 EG=1.11619 CJE=2.93452n VJE=0.687172 MJE=0.387331 TF=4e-10 XTF=1.5 VTF=1 ITF=1 CJC=8.63044e-10 VJC=0.467483 MJC=0.416593 XCJC=0.8 FC=0.533333 TR=3.4177e-07_Semi

* Vceo: 400
* Icrating: 8
* mfg: On
