* MJK50_CORDELL
* bjt/pnp/mjk50_cordell.mod

.MODEL MJk50_Cordell pnp IS=110f BF=118 VAF=100 IKF=0.06 ISE=1.7p NE=1.5 RB=9 RC=1 RE=0.01 CJE=200p MJE=0.35 VJE=0.75 CJC=120p MJC=0.35 VJC=0.55 FC=0.5 TF=4500p BR=0.04 IKR=0.0075 EG=0.75 XTB=1.1 XTI=3 NC=2.0 ISC=5p VAR=100

* mfg: CA030711
