* MJL1302_CORDELL
* bjt/pnp/mjl1302_cordell.mod

.MODEL MJL1302_Cordell pnp IS=7p BF=114 VAF=550 IKF=30 ISE=1e-7 NE=5 NF=1.0 RB=3.3 RC=0.1 CJE=16n MJE=0.45 VJE=0.8 CJC=2.3n MJC=0.4 VJC=0.3 FC=0.1 TF=3.0n XTF=1000 VTF=2 ITF=150 TR=100n BR=5 VAR=4.3 NR=1.1 EG=1.1 .0 XTB=0.1 XTI=1.0 NC=4 ISC=0.3p IKR=4.5

* Vceo: 200
* Icrating: 15
* mfg: CA041611
