* MJL4302A
* bjt/pnp/mjl4302a.mod

.MODEL mjL4302a pnp IS=8.52181e-11 BF=505.26 NF=1.14612 VAF=15.6851 IKF=2.86699 ISE=3.82966n NE=2.09196 BR=50.526 NR=1.18655 VAR=1.41005 IKR=9.95655 ISC=4.51392e-11 NC=1.28018 RB=98.7069 IRB=4.30971e-06 RBM=0.110355 RE=0.00577433 RC=0.0288716 XTB=0.00344757 XTI=0.00948369 EG=1.05 CJE=1.42406e-08 VJE=0.99 MJE=0.23 TF=2.22092e-09 XTF=15.6824 VTF=100000 ITF=63.5289 CJC=5.00002e-10 VJC=0.893622 MJC=2.3e-21 FC=0.1 TR=1e-07_Semi

* Vceo: 350
* Icrating: 15
* mfg: ON
