* MMBT3640
* bjt/pnp/mmbt3640.mod

.MODEL MMBT3640 PNP IS=1.41f ISE=9.681f NE=1.503 BF=115.7 IKF=0.1689 VAF=47.34 ISC=5.382E-11 NC=4.97 BR=1 IKR=4.659 RC=7.763 XTB=1.5 EG=1.11 XTI=3 CJE=2.82p VJE=0.6397 MJE=0.4073 CJC=1.886p VJC=0.3802 MJC=4.556E-02 FC=0.5 Tr=6n Tf=150p Itf=.5 Vtf=3

* NK: 0.7029
* Vceo: 12
* Icrating: 200m
* MFG: Fairchild
