* MP25A
* bjt/pnp/mp25a.mod

.model mp25a pnp bf=140 br=3 eg=0.72 cje=30p cjc=90p tf=0.4u tr=4u is=3u ikf=40m vaf=30 mje=0.5 mjc=0.5 rb=120 rbm=40 irb=0.1m ise=.3u ne=1.28 isc=.6u nc=1.28 mfg=GERMANIUM_USSR
