* MPS750
* bjt/pnp/mps750.mod

.MODEL MPS750 PNP (IS=203F NF=1 BF=130 VAF=114 IKF=1.2 ISE=202P NE=2 BR=4 NR=1 VAR=20 IKR=1.8 RE=25.8M RB=0.103 RC=10.3M XTB=1.5 CJE=477P VJE=1.1 MJE=0.5 CJC=154P VJC=0.3 MJC=0.3 TF=1.59N TR=1.1U)

* VCEO: 40V
* ICrating: 2
* MFG: Motorola
