* MPS751
* bjt/pnp/mps751.mod

.model mps751 pnp IS=3.302E-13 BF=3.103E+02 VAF=3.891E+01 IKF=6.028 ISE=9.055f NE=1.111 BR=5.822E+01 NR=1.006 VAR=2.892E+01 IKR=5.541E-01 ISC=4.007p NC=1.353 RB=3.346E+01 IRB=3.605E-03 RBM=2.104E-02 RE=0.1 RC=0.1 CJE=3.180E-10 VJE=6.329E-01 MJE=3.346E-01 TF=6.2137E-10 XTF=8.330E+02 VTF=9.674E+02 ITF=3.801E+01 CJC=6.088E-11 VJC=5.111E-01 MJC=4.220E-01 XTB=1.5 EG=1.11 XTI=3.0 FC=0.5
