* MPSA56-NS
* bjt/pnp/mpsa56-ns.mod

.MODEL MPSA56/NS PNP (IS=12.27P XTI=3 EG=1.11 VAF=100 BF=91.63 NE=1.531 ISE=12.27P IKF=1.009 XTB=1.5 BR=1.287 NC=2 ISC=0 IKR=0 RC=.6 CJC=48.28P MJC=.5615 VJC=.75 FC=.5 CJE=106.7P MJE=.5168 VJE=.75 TR=496.3N TF=865.8P ITF=.2 VTF=2 XTF=.8 RB=10)
