* MPSA55
* bjt/pnp/mpsa55.mod

.MODEL MPSA55 PNP(IS=65.000f ISE=45.000f ISC=62.000f XTI=4.300 BF=151.409 BR=5.0 IKF=0.825 IKR=75.000m XTB=1.900 VAF=81.400 VAR=10.808 VJE=1.090 VJC=1.0 RE=0.277 RC=0.311 RB=0.350 RBM=0.200 IRB=20.000E-6 CJE=74.000p CJC=27.800p XCJC=0.650 FC=0.750 NF=0.988 NR=0.985 NE=2.223 NC=1.478 MJE=0.410 MJC=0.571 TF=1.1n TR=2n PTF=1 ITF=0.487 VTF=2 XTF=5 EG=1.110 VCEO=60 ICRATING=500m MFG=SIEMENS)
