* MPSA93
* bjt/pnp/mpsa93.mod

.MODEL MPSA93 PNP(BF=98 BR=4.78 CJC=4.66E-11 CJE=9.54E-11 EG=1.11E+00 FC=5.00E-01 IKF=3.49E-02 IKR=1.00E+00 IRB=7.02E-04 IS=9.53E-14 ISC=9.99E-11 ISE=8.37E-13 ITF=4.12E-01 MJC=7.00E-01 MJE=4.26E-01 NC=1.5 NE=1.49 NR=1.55 PTF=0 RB=2.76E+01 RBM=6.66E-02 RC=1.00E-02 RE=1E-02 TF=9.52E-10 VAF=2.6E+02 VAR=1.4E+02 VJC=3.00E-01 VJE=3.00E-01 VJS=7.50E-01 VTF=9.99E+05 XTB=0 XTF=1.03 XTI=3)
