* MPSL51
* bjt/pnp/mpsl51.mod

.MODEL MPSL51 PNP(IS=21.48f ISE=21.48f ISC=0 XTI=3 BF=116.7 BR=3.728 IKF=0.1803 IKR=0 XTB=1.5 VAF=100 VAR=30 VJE=0.65 VJC=0.65 RE=0.15 RC=1.6 RB=10 CJE=73.39p CJC=21.16p XCJC=0.75 FC=0.5 NF=1 NR=1 NE=1.362 NC=2 MJE=0.3777 MJC=0.5312 TF=639.1p TR=1.487n ITF=0 VTF=0 XTF=0 EG=1.11)

* VCEO: 100
* ICRATING: 600m
* MFG: NSC
