* NJL0302DG_BJT
* bjt/pnp/njl0302dg_bjt.mod

.MODEL njL0302dg_bjt pnp IS=1.68444p BF=84.9671 NF=0.992223 VAF=10.01 IKF=7.49667 ISE=1e-08 NE=2.87955 BR=8.49671 NR=0.990995 VAR=99.9986 IKR=0.382704 ISC=3.81183e-16 NC=1 RB=4.23352 IRB=0.1 RBM=4.23351 RE=0.00779693 RC=0.0390712 XTB=1.60824 XTI=3.9999 EG=1.20458 CJE=1.56322e-08 VJE=0.99 MJE=0.23 TF=1.97297e-09 XTF=1000 VTF=817.29 ITF=453.232 CJC=5e-10 VJC=0.95 MJC=0.23 XCJC=0.756601 FC=0.8 TR=1e-07_Semi

* Vceo: 260
* Icrating: 15
* mfg: ON
