* NJL1302D
* bjt/pnp/njl1302d.mod

.MODEL njl1302d pnp IS=9.82035e-11 BF=82.1357 NF=1.38754 VAF=10.043 IKF=9.06286 ISE=6.57086p NE=3.31141 BR=3.74385 NR=1.6349 VAR=6.726 IKR=6.49075 ISC=2.50558e-13 NC=3.99895 RB=3.68893 IRB=0.0183457 RBM=0.1 RE=0.000386841 RC=0.093766 XTB=0.929578 XTI=1.31423 EG=0.861487 CJE=1.51689e-08 VJE=0.922965 MJE=0.447498 TF=2.75424e-09 XTF=1000 VTF=3.17307 ITF=255.984 CJC=1e-09 VJC=0.95 MJC=0.235697 FC=0.707596 TR=1e-07

* Vceo: 260
* Icrating: 15
* MFG: Onsemi
