* NJL1302_CORDELL
* bjt/pnp/njl1302_cordell.mod

.MODEL NJL1302_Cordell pnp IS=7p BF=114 VAF=571 IKF=30 ISE=1e-7 NE=5 NF=1 RB=3.3 RC=0.06 CJE=16n MJE=0.43 VJE=0.78 CJC=2.3n MJC=0.4 VJC=0.3 FC=0.1 TF=3n XTF=1000 VTF=2 ITF=150 TR=100n BR=5 VAR=4.3 NR=1.1 EG=1.1 XCJC=0.96 XTB=0.12 XTI=1.03 NC=4 ISC=0.3p IKR=4.4

* Vceo: 200
* Icrating: 15
* mfg: CA112210
