* NJL4302DG_BJT
* bjt/pnp/njl4302dg_bjt.mod

.MODEL njL4302dg_bjt pnp IS=3.25338e-14 BF=108.5 NF=0.85 VAF=10 IKF=1.18382 ISE=2.89523e-13 NE=1.1985 BR=0.100727 NR=1.08725 VAR=97.7807 IKR=1e-05 ISC=2.05388e-13 NC=3.23408 RB=0.876821 IRB=0.1 RBM=0.876821 RE=0.00441506 RC=0.0220753 XTB=5.59761 XTI=4 EG=1.206 CJE=1.56701e-08 VJE=0.99 MJE=0.542371 TF=1.8605n XTF=1000 VTF=100000 ITF=245.118 CJC=5e-10 VJC=0.95 MJC=0.23 FC=0.8 TR=1e-07_Semi

* Vceo: 350
* Icrating: 15
* mfg: ON
