* PBHV9040T
* bjt/pnp/pbhv9040t.mod

.MODEL PBHV9040T PNP IS=2.884E-013 NF=1 ISE=9.5f NE=1.15 BF=483.3 IKF=0.004232 VAF=11.55 NR=1 ISC=2.271p NC=1.22 BR=50 IKR=0.04402 VAR=25 RB=31.96 IRB=0.0002596 RBM=0.32 RE=0.103 RC=0.249 XTB=0 EG=1.11 XTI=3 CJE=1.801E-010 VJE=0.7633 MJE=0.3913 TF=1.6n XTF=300 VTF=5 ITF=2.7 CJC=3.619E-011 VJC=0.102 MJC=0.3 TR=20n FC=0.79 ; SOt23

* Vceo: 400
* Icrating: 0.25
* mfg: NXP
