* PBHV9050Z
* bjt/pnp/pbhv9050z.mod

.MODEL PBHV9050Z PNP IS=81.67f NF=0.9707 ISE=39.86f NE=1.399 BF=158 IKF=7m VAF=8 NR=0.965 ISC=1.307p NC=1.143 BR=11 IKR=0.5 VAR=81 RB=12.3 IRB=0.000232 RBM=1.45 RE=0.137 RC=0.341 XTB=0 EG=1.11 XTI=3 CJE=199.3p VJE=0.749 MJE=0.3789 TF=1.1n XTF=30 VTF=20 ITF=1.5 CJC=3.453E-011 VJC=0.5 MJC=0.4589 TR=8E-007 FC=0.6

* Vceo: 500
* Icrating: 250m
* mfg: NXP
