* PN4258
* bjt/pnp/pn4258.mod

.model PN4258 PNP (Is=545.6E-18 Xti=3 Eg=1.11 Vaf=100 Bf=61.42 Ne=1.5 Ise=0 Ikf=50m Xtb=1.5 Br=1.426 Nc=2 Isc=0 Ikr=0 Rc=3.75 Cjc=2.77p Mjc=.1416 Vjc=.75 Fc=.5 Cje=2.65p Mje=.3083 Vje=.75 Tr=4.109n Tf=118.5p Itf=.5 Vtf=3 Xtf=6 Rb=10)

* Vceo: 12
* Icrating: 200m
* MFG: Fairchild
