* PN4356
* bjt/pnp/pn4356.mod

.MODEL PN4356 PNP (IS=81.2F NF=1 BF=130 VAF=161 IKF=0.48 ISE=80.6P NE=2 BR=4 NR=1 VAR=20 IKR=0.72 RE=64.4M RB=0.258 RC=25.8M XTB=1.5 CJE=133P VJE=1.1 MJE=0.5 CJC=86.7P VJC=0.3 MJC=0.3 TF=795P TR=552N Vceo=80 Icrating=500m mfg=Fairchild)
