* Q2SA1930
* bjt/pnp/q2sa1930.mod

.MODEL Q2SA1930 PNP( IS=10f BF=210 VAF=78 IKF=10.000m XTB=1.5 BR=.1001 VAR=100 IKR=10.000m ISC=10.000f CJE=3.252p CJC=63.196p MJC=.33333 TF=83.239p XTF=10 VTF=10 ITF=1)
