* Q2SA1360
* bjt/pnp/q2sa1360.mod

.MODEL Q2SA1360 PNP IS=116.73f BF=147.48 VAF=100 IKF=78.684m ISE=297.72f NE=1.5511 BR=.77363 VAR=100 IKR=1.0217 ISC=26.92n NC=2.9970 RC=4.5038 CJE=4.0176p MJE=.33333 CJC=6.287p VJC=.35 MJC=.26272 TF=344.39p XTF=84.382 VTF=7.0050 ITF=.11443 TR=10n

* NK: .49889
