* Q2SA1327
* bjt/pnp/q2sa1327.mod

.MODEL Q2SA1327 PNP (IS=289.73f BF=220.01 VAF=100 IKF=20 ISE=289.75f NE=1.3484 BR=40.829 VAR=100 IKR=11.903 ISC=106.40p NC=1.6066 RC=36.278m CJE=642.81p MJE=.33333 CJC=971.65p MJC=.33333 TF=587.82p XTF=10 VTF=10 ITF=1 TR=60.099n)

* NK: .66302
* Vceo: 50
* Icrating: 10
* mfg: Japan
