* Q2SA1304
* bjt/pnp/q2sa1304.mod

.MODEL Q2SA1304 PNP (IS=10.000f BF=134.98 VAF=100 IKF=.70373 ISE=206.07f NE=1.4074 BR=1.9998 VAR=100 IKR=19.007 ISC=224.58n NC=2.9970 RC=.41468 CJE=88.387p MJE=.33333 CJC=133.60p MJC=.33333 TF=10.257n XTF=10 VTF=10 ITF=1 TR=10.000n)

* NK: .54868
* Vceo: 150
* Icrating: 1.5
* mfg: Japan
