* Q2SA1357
* bjt/pnp/q2sa1357.mod

.MODEL Q2SA1357 PNP (IS=89.641f BF=225.69 VAF=100 IKF=14.045 ISE=100.77f NE=1.4217 BR=499.52 VAR=100 IKR=20 ISC=23.567p NC=1.4956 RC=.13188 CJE=99.636p MJE=.33333 CJC=150.61p MJC=.33333 TF=254.08p XTF=10 VTF=10 ITF=1 TR=10.000n)

* NK: .8764
* Vceo: 35
* Icrating: 5
* mfg: Japan
