* Q2SA1020
* bjt/pnp/q2sa1020.mod

.MODEL Q2SA1020 PNP (IS=22.874f BF=157.34 VAF=100 IKF=6.1540 ISE=211.08f NE=1.4906 BR=500 VAR=100 IKR=20 ISC=37.417f NC=1.1098 RB=1 RC=.19037 CJE=64.281p MJE=.33333 CJC=97.165p MJC=.33333 TF=395.80p XTF=10 VTF=10 ITF=1 TR=168.00n)

* NK: .83537
* Vceo: 50
* Icrating: 2
* mfg: Japan
