* QNJW0302G
* bjt/pnp/qnjw0302g.mod

.MODEL Qnjw0302g pnp IS=5.16751e-16 BF=114.657 NF=0.895716 VAF=50.2189 IKF=6.409 ISE=3.9641f NE=4 BR=1.47167 NR=0.923324 VAR=255.567 IKR=6.34299 ISC=3.96408f NC=2.82194 RB=2.66347 IRB=0.1 RBM=2.0828 RE=0.0001 RC=0.0652395 XTB=1.45322 XTI=1.08126 EG=1.05 CJE=2.14504e-09 VJE=0.4 MJE=0.376227 TF=2.16864e-09 XTF=1000 VTF=843.737 ITF=501.348 CJC=5e-10 VJC=0.95 MJC=0.251547 FC=0.8 TR=1e-07
