* SMBT2907
* bjt/pnp/smbt2907.mod

.model SMBT2907 PNP(Is=67.34f Xti=3 Eg=1.11 Vaf=100 Bf=183.9 Ise=602.5f Ne=1.428 Ikf=.4354 Xtb=1.5 Br=111.8 Isc=1.068n Nc=1.667 Ikr=10.24 Rc=2.035 Cjc=16.82p Mjc=.3333 Vjc=.5 Fc=.5 Cje=50.46p Mje=.3333 Vje=.5 Tr=83.81n Tf=503.5p Itf=4.162 Xtf=30.04 Vtf=10)

* Nk: .648
* Vceo: 40
* Icrating: 600m
* mfg: Siemens
