* SMBTA55
* bjt/pnp/smbta55.mod

.model SMBTA55 PNP(Is=9.744f Xti=3 Eg=1.11 Vaf=100 Bf=107.1 Ise=9.747f Ne=1.377 Ikf=1.26 Xtb=1.5 Br=3.584 Isc=59.76f Nc=1.511 Ikr=1.901 Rc=.6051 Cjc=29.15p Mjc=.3333 Vjc=.5 Fc=.5 Cje=87.45p Mje=.3333 Vje=.5 Tr=10n Tf=977.7p Itf=13.98 Xtf=131.9 Vtf=10)

* Nk: .7865
* Vceo: 60
* Icrating: 500m
* mfg: Siemens
