* SMBT3906
* bjt/pnp/smbt3906.mod

.model SMBT3906 PNP(Is=9.744f Xti=3 Eg=1.11 Vaf=65.24 Bf=149.8 Ise=82.57f Ne=1.449 Ikf=28.66m Xtb=1.5 Br=1 Isc=38.84p Nc=1.759 Ikr=9.336 Rc=1.714 Cjc=6.211p Mjc=.3333 Vjc=.5 Fc=.5 Cje=8.299p Mje=.3333 Vje=.5 Tr=304.2n Tf=365.5p Itf=13.39 Xtf=148.4 Vtf=10)

* Nk: .4984
* Vceo: 40
* Icrating: 200m
* mfg: Siemens
