* SS8550
* bjt/pnp/ss8550.mod

.model ss8550 pnp is=117.63f bf=178.2 vaf=51.25 ikf=3.303 ise=18.82f ne=1.5 br=5 var=36.68 ikr=0.01 isc=0.2f nc=1.5 rb=122 irb=83.22u rbm=27.07 rc=1 cje=99.51p Vceo=25 Icrating=1.5 mfg=Fairchild
