* SS9015
* bjt/pnp/ss9015.mod

.model ss9015 pnp is=28.76f bf=125.5 nf=1 vaf=123 ikf=0.6041 ise=4.79f ne=1.5 br=4.79 nr=1 var=11.29 ikr=0.275423 isc=14.454f nc=1.5 rb=200 irb=10u rbm=10 re=0.56 rc=5 tf=837.7p cjc=20.96p vjc=0.5164 mjc=0.656 xcjc=0.451

* Vceo: 45
* Icrating: 0.1
* mfg: Fairchild
