* SS9012
* bjt/pnp/ss9012.mod

.model ss9012 pnp is=2.0417e-14 bf=143.3 vaf=47.75 ikf=0.5743 ise=75.86f ne=2 br=14.345 nr=0.999 var=86.14 ikr=0.4265 isc=1.585f nc=1.0087 rb=57.5 irb=7.943u rbm=8.09 re=0.02 rc=0.743 cje=35.1p vje=0.866 mje=0.411 cjc=19.1p vjc=0.787 mjc=0.394 xcjc=0.349 xtb=1.413 eg=1.0885 xti=3 fc=0.5

* Vceo: 20
* Icrating: 0.5
* mfg: Fairchild
