* TIP2955
* bjt/pnp/tip2955.mod

.MODEL TIP2955 PNP(IS=4.66p BF=360 VAF=100 IKF=0.25 ISE=3.339E-11 BR=2 ISC=5n RB=3 IRB=0.001 RBM=0.4 RC=0.04 CJE=5.802E-10 VJE=1.2 MJE=0.45 TF=8E-8 XTF=1 ITF=3 PTF=120 CJC=2.121E-10 MJC=0.4 TR=2.55u XTB=1 ))

* VCEO: 100
* ICRATING: 15
* MFG: TEXAS
