* ZTX214
* bjt/pnp/ztx214.mod

.MODEL ZTX214 PNP(IS=1.15E-14 BF=330 NF=0.9872 VAF=84.56 IKF=0.1 ISE=5E-14 NE=1.4 BR=13 NR=0.996 VAR=8.15 IKR=0.012 ISC=1.43E-14 NC=1.1 RB=0.2 RE=0.4 RC=0.95 CJE=1.6E-11 TF=4.93E-10 CJC=1.05E-11 VJC=0.565 MJC=0.415 TR=7.355E-8)

* mfg: Zetex
