* ZTX550
* bjt/pnp/ztx550.mod

.model ZTX550 PNP(IS=3.2E-14 BF=170 NF=0.977 VAF=45 IKF=1.25 ISE=7f NE=1.35 BR=50 NR=0.986 VAR=50 IKR=0.15 ISC=9f NC=1.08 RB=0.16 RE=0.195 RC=0.185 CJE=1.04E-10 TF=7E-10 CJC=3.05E-11 VJC=0.395 MJC=0.415 TR=3n)

* Vceo: 30
* ICrating: 100m
* mfg: Zetex
