* ZTX751
* bjt/pnp/ztx751.mod

.MODEL ZTX751 PNP IS=2.715E-13 BF=170 VAF=70 NF=1.004 IKF=2.75 ISE=1E-13 NE=1.535 BR=23 VAR=40 NR=1.005 IKR=.55 ISC=5.15E-14 NC=1.13 RB=.07 RE=.065 RC=.085 CJE=360p TF=.94n CJC=90p TR=60n VJC=.705 MJC=.46

* Vceo: 60
* Icrating: 2
* mfg: Zetex
