* ZXT13P20DE6
* bjt/pnp/zxt13p20de6.mod

.MODEL ZXT13P20DE6 PNP IS=1.3p NF=1 BF=450 IKF=6 VAF=15 ISE=0.8E-13 NE=1.4 NR=1 BR=210 VAR=5 ISC=4e-14 NC=1.18 RB=1 RE=.0075 RC=.07 CJC=235p MJC=0.38 VJC=0.51 CJE=674p MJE=0.52 VJE=0.95 TF=1.1n TR=3.6n XTB=1.5

* Vceo: 20
* Icrating: 3.5
* mfg: Zetex
