* 2N1132
* bjt/npn/2n1132.mod

.MODEL 2N1132 NPN (IS=9.99916F BF=55.9464 NF=998.061M VAF=100 IKF=9.98401K ISE=3.62279F NE=1.10688 BR=1.55171 IKR=9.99993M ISC=106.162P RE=3.44553 RC=5.64395 CJE=104.717P VJE=700.004M MJE=499.511M CJC=175.838P VJC=699.998M MJC=499.794M TF=2.66025N XTF=500.005M VTF=10 ITF=9.68022M TR=10N).
