* 2N1711
* bjt/npn/2n1711.mod

.model 2N1711 NPN(IS=5.80495E-14 NF=1.00578 VAF=430.283 IKF=1.47556 ISE=5.00431E-16 NE=1.17121 BR=6.50271 NR=1.00234 VAR=29.3468 IKR=0.396801 ISC=7.02023f NC=1.01086 RB=61.0257 RE=0.0649012 EG=1.11 XTI=3 CJE=6.12932E-11 VJE=0.718394 MJE=0.34929 VJC=0.490763 MJC=0.358852 FC=0.5 BF=1.46604E+02 CJC=1.8145E-11 RC=1.16875 TF=2.273642n XTF=1 )
