* 2N3053
* bjt/npn/2n3053.mod

.model 2N3053 NPN (IS=71.1F NF=1 BF=260 VAF=113 IKF=.42 ISE=27.3P NE=2 BR=4 NR=1 VAR=20 IKR=.63 RE=73.6M RB=.294 RC=29.4M XTB=1.5 CJE=79.2P VJE=1.1 MJE=.5 CJC=25.5P VJC=.3 MJC=.3 TF=858P TR=596N)

* Vceo: 40
* ICrating: 700M
* mfg: Motorola
