* 2N3439_
* bjt/npn/2n3439_.mod

.MODEL 2n3439_ npn IS=4.95669e-14 BF=217.608 NF=0.989177 VAF=144.204 IKF=1.16129 ISE=7.22363e-12 NE=2.22456 BR=1.16323 NR=0.965806 VAR=35.1857 IKR=10 ISC=7.22363p NC=3.89846 RB=14.7195 IRB=0.1 RBM=0.1 RE=0.00296577 RC=0.408396 XTB=1.32969 XTI=4 EG=1.206 CJE=1.17247e-10 VJE=0.4 MJE=0.306342 TF=5.70574e-09 XTF=1000 VTF=3.89508 ITF=0.608387 CJC=1.89145e-11 VJC=0.501432 MJC=0.30394 XCJC=0.1 FC=0.8 TR=100n PTF=0 Vceo=350 Icrating=1
