* 2N3439
* bjt/npn/2n3439.mod

.MODEL 2N3439 NPN (Is=2.644p Xti=3 Eg=1.11 Vaf=100 Bf=1.557K Ne=1.305 Ise=5.292p Ikf=38.4m Xtb=1.5 Br=10.22 Nc=2 Isc=0 Ikr=0 Rc=6 Cjc=24.28p Mjc=.4169 Vjc=.75 Fc=.5 Cje=105.8p Mje=.3681 Vje=.75 Tr=303.6n Tf=2.033n Itf=5 Vtf=10 Xtf=20 Rb=10 Vceo=350 Icrating=1 mfg=Motorola)
