* 2N3506
* bjt/npn/2n3506.mod

.model 2N3506 NPN(Is=86.76f Xti=3 Eg=1.11 Vaf=100 Bf=116.1 Ise=190.9p Ne=2.064 Ikf=2.36 Nk=.6321 Xtb=1.5 Var=100 Br=30m Isc=1p Nc=2 Ikr=1 Rc=.2 Cjc=48.58p Mjc=.3333 Vjc=.75 Fc=.5 Cje=256.5p Mje=.3333 Vje=.75 Tr=2.112u Tf=1.867n Itf=1 Xtf=0 Vtf=10)
