* 2N3553
* bjt/npn/2n3553.mod

.MODEL 2N3553 NPN BR=5.68 CJE=5.36E-11 EG=1.11 FC=0.5 IKF=0.74 IKR=0.0943 IS=1.93E-14 ISC=4.76E-14 ISE=3.16E-13 ITF=0.134 MJC=0.42 MJE=0.266 MJS=0.33 NC=1.14 NE=1.57 NF=1.01 NR=1.01 RB=8.07 RE=0.0274 VAF=252 VAR=15.8 VJC=0.583 VJE=0.646 VJS=0.75 VTF=0.1 XTB=0 XTI=3 BF=6.53E+01 CJC=3.46E-11 RC=5.18E-01 TF=2.6E-10 XTF=1.0E-01
