* 2N3585
* bjt/npn/2n3585.mod

.model 2N3585 NPN(Is=915f Xti=3 Eg=1.11 Vaf=100 Bf=247.7 Ise=39.59p Ne=1.547 Ikf=.3138 Xtb=2.2 Var=100 Br=14.99 Isc=285.2p Nc=1.423 Ikr=.8443 Rc=.4036 Cjc=146.5p Mjc=.3375 Vjc=.3905 Fc=.5 Cje=733.3p Mje=.6277 Vje=1.878 Tr=1.722u Tf=3.962n Itf=6.051 Xtf=48.54 Vtf=10)

* Nk: .5973
