* 2N3646
* bjt/npn/2n3646.mod

.MODEL 2N3646 NPN(IS=1.017f ISE=34.11p ISC=0 XTI=3 BF=85.99 BR=3.587 IKF=0.2617 IKR=0 XTB=1.5 VAF=100 VAR=30 VJE=0.65 VJC=0.65 RE=0.15 RC=1.75 RB=10 CJE=8.359p CJC=4.256p XCJC=0.75 FC=0.5 NF=1 NR=1 NE=2.048 NC=2 MJE=0.3504 MJC=0.1053 TF=289.3p TR=5.32n ITF=0.35 VTF=5 XTF=2 EG=1.11)

* VCEO: 40
* ICRATING: 200m
* MFG: NSC
