* 2N3642
* bjt/npn/2n3642.mod

.MODEL 2N3642 NPN(IS=14.34f ISE=14.34f ISC=0 XTI=3 BF=118.6 BR=7.134 IKF=0.2524 IKR=0 XTB=1.5 VAF=74.03 VAR=28 VJE=0.65 VJC=0.65 RE=0.1 RC=1 RB=10 CJE=22.01p CJC=7.306p XCJC=0.75 FC=0.5 NF=1 NR=1 NE=1.236 NC=2 MJE=0.377 MJC=0.3416 TF=410.3p TR=50.96n ITF=0.6 VTF=1.7 XTF=3 EG=1.11 VCEO=45 ICRATING=500m MFG=NSC)
