* 2N3773
* bjt/npn/2n3773.mod

.model 2n3773 npn IS=1.12p BF=280 NF=1 VAF=40 IKF=1.9 ISE=83.27n NE=2.7324 BR=1.25 NR=1 VAR=50 IKR=1.9 ISC=83n NC=2.7 RB=0.6 RBM=0.6 RE=0.001 RC=89.3m CJE=1378.4p VJE=0.5 MJE=0.4958 TF=48.2n XTF=2 VTF=30 ITF=9 CJC=684.94p VJC=0.7 MJC=0.3221 XCJC=0.5 TR=200n XTB=0.887 EG=1.11 XTI=3 FC=0.5
