* 2N3866
* bjt/npn/2n3866.mod

.MODEL 2N3866 NPN ( BF=100 VAF=240 VAR=24 RC=4.9 RB=12.2 RE=0.132 IKF=0.28 ISE=3.6E-14 TF=7.1E-11 TR=8n ITF=0.12 VTF=9.9 CJC=2.7p CJE=3.5p XTI=3 NE=1.5 ISC=1.2E-14 EG=1.11 XTB=1.5 BR=1.5 VJC=0.75 VJE=0.75 IS=4f MJC=0.33 MJE=0.33 XTF=4.0 IKR=0.28 KF=1f NC=1.7 FC=0.5 RBM=9 IRB=0.04 XCJC=0.5 )
