* 2N3859A
* bjt/npn/2n3859a.mod

.MODEL 2N3859A NPN(IS=5.911f ISE=5.911f ISC=0 XTI=3 BF=393.6 BR=1.372 IKF=12.43m IKR=0 XTB=1.5 VAF=62.37 VAR=21.5 VJE=0.65 VJC=0.65 RE=0.15 RC=1.61 RB=10 CJE=4.973p CJC=4.017p XCJC=0.75 FC=0.5 NF=1 NR=1 NE=1.271 NC=2 MJE=0.4146 MJC=0.3174 TF=818.2p TR=4.761n ITF=0.35 VTF=4 XTF=7 EG=1.11)

* VCEO: 60
* ICRATING: 100m
* MFG: NSC
