* 2N3904T
* bjt/npn/2n3904t.mod

.MODEL 2n3904T NPN(IS=4.1799f BF=215.38 VAF=79.874 IKF=.88689 ISE=4.2698f NE=1.9988 BR=4.8050 VAR=100 IKR=.54262 ISC=2.5346p NC=1.4324 NK=1.3890 RB=14.616 RC=.53092 CJE=9.4850p MJE=.33333 CJC=7.6517p MJC=.33333 TF=481.51p XTF=10 VTF=10 ITF=1 TR=124.93n Vceo=40 Icrating=600m mfg=Philips)
