* 2N4141
* bjt/npn/2n4141.mod

.MODEL 2N4141 NPN(IS=14.34f ISE=14.34f ISC=0 XTI=3 BF=255.9 BR=6.092 IKF=0.2847 IKR=0 XTB=1.5 VAF=74.03 VAR=28 VJE=0.65 VJC=0.65 RE=0.1 RC=1 RB=10 CJE=22.01p CJC=7.306p XCJC=0.75 FC=0.5 NF=1 NR=1 NE=1.307 NC=2 MJE=0.377 MJC=0.3416 TF=411.1p TR=46.91n ITF=0.6 VTF=1.7 XTF=3 EG=1.11 VCEO=60 ICRATING=200m MFG=NSC)
