* 2N4427T
* bjt/npn/2n4427t.mod

.model 2N4427T NPN(Is=20.75f Xti=3 Eg=1.11 Vaf=100 Bf=200 Ise=224.4f Ne=1.439 Ikf=76.38m Xtb=1.8 Br=2.025 Isc=163.1p Nc=1.438 Ikr=5.567 Rc=1.156 Cjc=3.334p Mjc=.2086 Vjc=.5 Fc=.5 Cje=4.118p Mje=.3794 Vje=.5 Tr=45.49n Tf=236.7p Itf=1.912 Xtf=43.51 Vtf=10)

* Nk: .5276
* Vceo: 40
* Icrating: 500m
* mfg: Philips
