* 2N4400
* bjt/npn/2n4400.mod

.MODEL 2N4400 NPN(IS=26.03f ISE=26.7f ISC=0 XTI=3 BF=77.56 BR=1.06 IKF=0.2397 IKR=0 XTB=1.5 VAF=90.7 VAR=29 VJE=0.65 VJC=0.65 RE=0.15 RC=0.5 RB=10 CJE=24.07p CJC=11.01p XCJC=0.75 FC=0.5 NF=1 NR=1 NE=1.204 NC=2 MJE=0.3641 MJC=0.3763 TF=573.2p TR=244n ITF=0 VTF=0 XTF=0 EG=1.11)

* VCEO: 60
* ICRATING: 600m
* MFG: NSC
