* 2N4401_CORDELL
* bjt/npn/2n4401_cordell.mod

.MODEL 2N4401_Cordell npn IS=26f BF=205 VAF=200 IKF=0.35 ISE=10f NE=1.5 NF=1 RB=13 RC=0.5 RE=0.1 CJE=24p MJE=0.36 VJE=0.75 CJC=11p MJC=0.38 VJC=0.75 FC=0.5 TF=570p XTF=400 VTF=10 ITF=4 TR=230n BR=1 IKR=0 EG=1.1 XTB=1.5 XTI=3 NC=2 ISC=0 mfg=CA022311
