* 2N4410
* bjt/npn/2n4410.mod

.MODEL 2N4410 NPN(IS=5.911f ISE=5.911f ISC=0 XTI=3 BF=413.6 BR=1.361 IKF=12.6m IKR=0 XTB=1.5 VAF=62.37 VAR=21.5 VJE=0.65 VJC=0.65 RE=0.15 RC=1.61 RB=10 CJE=4.973p CJC=4.017p XCJC=0.75 FC=0.5 NF=1 NR=1 NE=1.278 NC=2 MJE=0.4146 MJC=0.3174 TF=818.4p TR=4.749n ITF=0.35 VTF=4 XTF=7 EG=1.11)

* VCEO: 120
* ICRATING: 250m
* MFG: NSC
