* 2N4427M
* bjt/npn/2n4427m.mod

.model 2N4427M NPN IS=10.000f BF=12.656 VAF=100 IKF=.50673 ISE=119.65f NE=1.5060 BR=.1001 VAR=100 IKR=10.010m ISC=10.000f CJE=2.0000p CJC=13.487p+ MJC=.33333 TF=305.55p XTF=10 VTF=10 ITF=1 TR=10.000n

* NK: .68565
