* 2N5088_F
* bjt/npn/2n5088_f.mod

.MODEL 2N5088_F npn IS=3.80189E-14 BF=405.19 NF=1 BR=16.246 NR=1 ISE=2.51189E-14 NE=2 ISC=9.84993p NC=1.5 VAF=219.367 VAR=10.6729 IKF=0.40519 IKR=0.020893 RB=898 RBM=7.525 IRB=2.179E-6 RE=2.5 RC=1.5 CJE=1.984254E-11 VJE=1.2 MJE=0.05 FC=0.5 CJC=5.858717p VJC=0.5 MJC=0.3080685 TF=3.185n XTB=1.8883 EG=1.1884 XTI=3 VCEO=35 ICRATING=50m MFG=Fairchild
