* 2N5089_CORDELL
* bjt/npn/2n5089_cordell.mod

.MODEL 2N5089_Cordell npn IS=35f BF=500 VAF=110 IKF=0.05 ISE=6f NE=1.42 NF=1 RB=295 RC=1.6 RE=0.1 CJE=9p MJE=0.40 VJE=0.75 CJC=4p MJC=0.30 VJC=0.75 FC=0.5 TF=850p XTF=7 VTF=4 ITF=0.35 TR=500n BR=1.5 IKR=0 EG=1.1 XTB=1.5 XTI=3 NC=2 ISC=0

* mfg: CA030911
