* 2N5172
* bjt/npn/2n5172.mod

.MODEL 2N5172 NPN(IS=12.03f ISE=4.098p ISC=0 XTI=3 BF=308.3 BR=4.379 IKF=0.1072 IKR=0 XTB=1.5 VAF=37.37 VAR=12.5 VJE=0.65 VJC=0.65 RE=0.1 RC=1 RB=10 CJE=8.307p CJC=5.777p XCJC=0.75 FC=0.5 NF=1 NR=1 NE=1.971 NC=2 MJE=0.384 MJC=0.3199 TF=385.4p TR=718.9p ITF=0.17 VTF=3 XTF=8 EG=1.11)

* VCEO: 25
* ICRATING: 100M
* MFG: NSC
