* 2N5179
* bjt/npn/2n5179.mod

.MODEL 2N5179 NPN(IS=69.28E-18 ISE=69.28E-18 ISC=0 XTI=3 BF=282.1 BR=1.176 IKF=22.03m IKR=0 XTB=1.5 VAF=100 VAR=30 VJE=0.65 VJC=0.65 RE=0.15 RC=4 RB=10 CJE=1.52p CJC=1.042p XCJC=0.75 FC=0.5 NF=1 NR=1 NE=1.177 NC=2 MJE=0.3223 MJC=0.2468 TF=135.6p TR=1.588n ITF=0.27 VTF=10 XTF=30 EG=1.11)

* VCEO: 20
* ICRATING: 50m
* MFG: NSC
