* 2N5109
* bjt/npn/2n5109.mod

.MODEL 2N5109 NPN ( BF=44 VAF=160 VAR=16 RC=0.69 RB=1.57 RE=2.75 IKF=0.28 ISE=0.36E-13 TF=0.111n TR=8n ITF=0.82E-01 VTF=0.66E+01 CJC=3p CJE=2p XTI=3.0 NE=1.5 ISC=0.12E-13 EG=1.11 XTB=1.5 BR=1.14 VJC=0.75 VJE=0.75 IS=0.40E-14 MJC=0.33 MJE=0.33 XTF=4 IKR=0.28 KF=1f NC=1.7 FC=0.5 RBM=1.1 IRB=0.40E-01 XCJC=0.5 )

* mfg: Motorola
