* 2N5339
* bjt/npn/2n5339.mod

.MODEL 2N5339 NPN (IS=5.714601E-13 BF=152.57 NF=0.9805931 VAF=61.1748129 IKF=9.7 ISE=7.21052E-14 NE=1.19901 BR=13.852 NR=0.9784 VAR=48.653531 IKR=0.6209 ISC=6.3E-13 NC=1.1115541 RB=13.93 IRB=6.583436E-4 RBM=1.2294809 RE=1m RC=0.1875 CJE=1.302694n VJE=0.6346739 MJE=0.330941 TF=1.05n XTF=26.935 VTF=0.2766874 ITF=2.0724567 PTF=9.69 CJC=3.569026E-10 VJC=0.4519862 MJC=0.4118022 TR=2E-7 XTB=1.886 EG=1.11 XTI=6.7495 FC=0.7632526
