* 2N5657
* bjt/npn/2n5657.mod

.MODEL 2n5657 npn IS=2.60089e-13 BF=46.1881 NF=0.9868 VAF=61.921 IKF=6.79554 ISE=7.20462p NE=3.28966 BR=4.46937 NR=0.866274 VAR=7.19873 IKR=3.17468 ISC=1.74986e-13 NC=3.90625 RB=10.927 IRB=0.1 RBM=0.1 RE=0.0141049 RC=2.43986 XTB=0.136699 XTI=1.1199 EG=1.206 CJE=2.13868e-10 VJE=0.99 MJE=0.391421 TF=1.01847e-08 XTF=1.77369 VTF=3.60195 ITF=0.226713 CJC=4.74919e-11 VJC=0.95 MJC=0.361447 XCJC=0.789467 FC=0.8 TR=9.5407u PTF=0
