* 2N5794
* bjt/npn/2n5794.mod

.MODEL 2N5794 NPN IS=17.882E-18 BF=259.74 VAF=100 IKF=1.7249 ISE=3.5488f NE=1.5028 BR=2.2512 VAR=100 IKR=20 ISC=3.9625n NC=2.997 NK=1.1338 RC=.58862 CJE=26.137p MJE=.45696 CJC=17.393p MJC=.46853 TF=77.901p XTF=9.99 VTF=10 ITF=1.1273m TR=1n XTB=1.75
