* 2N5772
* bjt/npn/2n5772.mod

.MODEL 2N5772 NPN(IS=44.14f ISE=94.79f ISC=0 XTI=3 BF=75.97 BR=12.76m IKF=0.3498 IKR=0 XTB=1.5 VAF=100 VAR=30 VJE=0.65 VJC=0.65 RE=0.06 RC=0.6 RB=10 CJE=4.5p CJC=2.83p XCJC=0.75 FC=0.5 NF=1 NR=1 NE=1.389 NC=2 MJE=0.2418 MJC=0.862 TF=227.6p TR=1.076E-6 ITF=0.3 VTF=4 XTF=4 EG=1.11)

* VCEO: 40
* ICRATING: 200m
* MFG: NSC
