* 2N5962
* bjt/npn/2n5962.mod

.MODEL 2N5962 npn IS=4.67735E-14 BF=1336.1 NF=1 BR=4.49 NR=1.011 ISE=9.12011E-14 NE=2 ISC=3.63078E-16 NC=1.5 VAF=46 VAR=9.33 IKF=0.0436516 IKR=0.0144544 RB=143 RBM=36.064 IRB=5.01187E-4 RE=1.06 RC=1.8 CJE=6.20343p VJE=0.574074 MJE=0.222819 FC=0.5 CJC=4.92525p VJC=0.5 MJC=0.300786 XTB=1.5 EG=1.17 XTI=3 Vceo=45 Icrating=100m mfg=Fairchild
