* 2N5961
* bjt/npn/2n5961.mod

.MODEL 2N5961 NPN IS=2.61162E-14 NF=1.00346 VAF=95.0254 IKF=0.029931 ISE=7.61259E-16 NE=1.21454 BR=5.96205 NR=1.03052 VAR=9.07938 IKR=0.0214923 ISC=3.89612f NC=1.04471 RB=57.8892 RE=0.18172 EG=1.11 XTI=3 CJE=4.90357p VJE=0.671322 MJE=0.328132 VJC=0.376047 MJC=0.253526 FC=0.5 BF=784.646 CJC=4.08683p RC=1.97533 TF=1.591549n
