* 2N6032
* bjt/npn/2n6032.mod

.model 2N6032 NPN(Is=2.767p Xti=3 Eg=1.11 Vaf=100 Bf=112.2 Ise=2.767p Ne=1.323 Ikf=36.77 Nk=.7385 Xtb=1.5 Var=100 Br=10 Isc=10f Nc=5 Ikr=50 Rc=11m Cjc=1.914n Mjc=.3625 Vjc=.3905 Fc=.5 Cje=10n Mje=.3333 Vje=.75 Tr=361.8n Tf=40n Itf=1 Xtf=0 Vtf=10)
