* 2N6517
* bjt/npn/2n6517.mod

.model 2N6517 NPN(Is=37.71f Xti=3 Eg=1.11 Vaf=100 Bf=943.2 Ne=1.194 Ise=38.57f Ikf=.1418 Xtb=1.5 Br=7.24 Nc=2 Isc=0 Rc=7 Cjc=13.97p Mjc=.4696 Vjc=.75 Fc=.5 Cje=57.62p Mje=.3536 Vje=.75 Tr=876.8n Tf=2.056n Itf=.65 Vtf=14 Xtf=200 Rb=10)
