* 2N697
* bjt/npn/2n697.mod

.model 2n697 npn IS=7.370E-14 BF=7.432E+01 NF=1 VAF=2.838E+02 IKF=8.500E-01 ISE=3.713E-14 NE=1.303 BR=1.983 NR=1.033 VAR=4.811E+01 IKR=1.494E-02 ISC=9.322E-13 NC=1.205 IRB=1.000E-04 RE=1.641 RC=4.971 CJE=8.523E-11 VJE=7.288E-01 MJE=3.415E-01 TF=1.383n XTF=5.975E+01 VTF=3.900E-01 ITF=4.746E-01 PTF=0 CJC=2.684E-11 VJC=5.359E-01 MJC=3.748E-01 TR=1.714E-07 XTB=1.5 EG=1.11 XTI=3.0 FC=0.5
