* 2SC1775
* bjt/npn/2sc1775.mod

.MODEL 2SC1775 NPN BR=1 CJE=1.11E-11 EG=1.11 FC=0.5 IKF=0.116 IKR=1 IRB=1E-06 IS=5.98E-14 ISC=1E-13 ISE=2.7f ITF=4.64 MJC=0.155 MJE=0.33 NC=2 NE=1.24 NF=1.01 NR=1 RB=0.01 RBM=0.01 RE=0 TR=10.000n VAF=100 VAR=50 VJC=0.3 VJE=0.75 VTF=1E+06 XTB=0 XTI=3 BF=1.000000E+03 CJC=3.280000p RC=0.000000E+00 TF=3.800000E-10 XTF=4.37k
