* 2SC1306
* bjt/npn/2sc1306.mod

.model 2SC1306 npn IS=117.72f BF=140 NF=1.088 VAF=120 IKF=1.0 ISE=82p NE=2.225 BR=1.0 NR=1.088 VAR=500 RB=3 RBM=3 RE=0.03 RC=0.4 CJE=61p VJE=1.0375 MJE=0.4179 TF=243.4p XTF=2 VTF=10 ITF=0.1 CJC=13.7p VJC=0.1758 MJC=0.2153 XCJC=0.5 TR=40n XTB=1.765 EG=1.11 XTI=3 MFG=NEC
