* 2SC1815
* bjt/npn/2sc1815.mod

.model 2SC1815 NPN(Is=2.04f Xti=3 Eg=1.11 Vaf=6 Bf=400 Ikf=20m Xtb=1.5 Br=3.377 Rc=1 Cjc=1p Mjc=.3333 Vjc=.75 Fc=.5 Cje=25p Mje=.3333 Vje=.75 Tr=450n Tf=20n Itf=0 Vtf=0 Xtf=0)

* VCEO: 45V
* ICrating: 150M
* MFG: Toshiba
