* 2SC2412K
* bjt/npn/2sc2412k.mod

.MODEL 2SC2412K NPN IS=70f BF=277.08 VAF=114.03 IKF=1 ISE=70f NE=1.8934 BR=11.565 VAR=100 IKR=.11266 ISC=1.0228p NC=1.3260 RE=.2 RB=13.897 RC=1.2190 CJE=11.342p MJE=.38289 CJC=4.023p MJC=.34629 TF=338.92p XTF=4.0449 VTF=167.36 ITF=.85959 TR=110.25n XTB=1.5

* NK: .71869
