* 2SC2922
* bjt/npn/2sc2922.mod

.MODEL 2SC2922 NPN (BF=110.13 CJC=200P CJE=500P FC=0.5 IKF=99.99 IS=122.9N ISE=122.9N ITF=6.76K MJC=.3333 MJE=.3333 NE=1.677 NK=1.384 TF=4.584N TR=2.581U VAF=100 VAR=100 VJC=.75 VJE=.75 VTF=10 XTB=1.5)
