* 2SC2873
* bjt/npn/2sc2873.mod

.MODEL 2SC2873 NPN(IS=3E-13 ISE=1.1E-13 ISC=6.5E-13 XTI=3 BF=225 BR=110 IKF=2.8 IKR=0.8 XTB=1.5 VAF=80 VAR=28 VJE=0.65 VJC=0.65 RE=0.063 RC=0.07 RB=0.3 CJE=325p CJC=70p XCJC=0.75 FC=0.5 NF=1 NR=0.972 NE=1.37 NC=1.372 MJE=0.33 MJC=0.33 TF=1n TR=10n EG=1.11 VCEO=50V ICRATING=2 MFG=ZETEX)
