* 2SC2344
* bjt/npn/2sc2344.mod

.model 2SC2344 NPN(Is=26.94p Eg=1.11 Vaf=100 Bf=333.1 Ise=192.6p Ne=1.488 Ikf=2.436 Xtb=1.5 Br=216.9 Isc=241.8n Nc=2.259 Ikr=482.5 Rc=.6049 Cjc=250.5p Mjc=.4004 Vjc=11.36m Cje=250p Tr=33.47n Tf=1.526n Itf=13.13 Xtf=41.6 Vtf=10)

* Nk: 1.017
* Vceo: 160
* Icrating: 1.5
* mfg: Sanyo
