* 2SC2078
* bjt/npn/2sc2078.mod

.model 2SC2078 NPN(Is=20.4f Xti=3 Eg=1.11 Vaf=100 Bf=810 Ise=22.8f + Ne=1.166 Ikf=21.53 Xtb=1.5 Isc=20.4f Ikr=0 Cjc=111p Mjc=.4 Vjc=.984 Cje=100p Tf=944.5p Itf=84.5 Xtf=232.7 Vtf=10)

* Nk: 1.298
* Vceo: 75
* Icrating: 3
* mfg: Sanyo
