* 2SC2705
* bjt/npn/2sc2705.mod

.MODEL 2SC2705 NPN (IS=9.98627F BF=2K NF=967.67M VAF=100 IKF=49.6929M ISE=1.04163F NE=1.07574 BR=601.257M IKR=462.798U ISC=32.904P RC=899.97M CJE=2P MJE=500M CJC=6.42174P VJC=749.999M MJC=499.509M TF=713.346P XTF=500M VTF=10 ITF=9.9976M TR=10N)
