* 2SC2075
* bjt/npn/2sc2075.mod

.model 2SC2075 NPN(Is=10f Eg=1.11 Bf=127.6 Ise=12.37f Ne=1.196 Ikf=40 Xtb=1.5 Cjc=103p Mjc=.43 Vjc=1.25 Cje=100p Tr=10n Tf=1.633n Itf=50 Xtf=52.5 Vtf=10)

* Nk: 1.838
* Vceo: 80
* Icrating: 4
* mfg: Toshiba
