* 2SC3953
* bjt/npn/2sc3953.mod

.MODEL 2SC3953 NPN ( IS=5.80f BF=120 NF=0.98 VAF=23.0 IKF=4 ISE=70.0f NE=1.70 BR=1.40 NR=1.00 VAR=38.0 IKR=20 ISC=10f NC=1.50 RB=360m IRB=1 RBM=80m RE=60m RC=180.0m XTB=0 XTI=3 EG=1.11 NK=0.68 CJC=6.7p FC=0.5 MJC=0.33 VJC=0.75 MJE=0.33 VJE=0.75 CJE=15p TF=400p ITF=1 XTF=10 VTF=20 MFG=SANYO)
