* 2SC3182N
* bjt/npn/2sc3182n.mod

.model 2sc3182n npn IS=5p BF=106 VAF=85 IKF=18.5 ISE=4.5p NE=1.4 BR=11.50697 RB=111.7753m RE=44.3534m RC=5m CJE=4.74999n VJE=900m MJE=500m TF=4.5n XTF=8 VTF=10 ITF=8 CJC=533.9324p XCJC=0.5 TR=2.50801u XTB=3.3931 FC=0.7
