* 2SC3112
* bjt/npn/2sc3112.mod

.model 2sc3112 NPN(Is=14.1f Xti=3 Eg=1.11 Vaf=100 Bf=1.439K Ise=14.1f Ne=1.68 Ikf=.9998 Xtb=1.5 Var=100 Br=15.46 Isc=1.526p Nc=1.5 Ikr=20.84m Rc=.4072 Cjc=10.83p Mjc=.3585 Vjc=.3905 Fc=.5 Cje=5p Mje=.3333 Vje=.75 Tr=10n Tf=609.5p Itf=2.975 Xtf=0 Vtf=10)

* Nk: .9651
