* 2SC3052
* bjt/npn/2sc3052.mod

.MODEL 2SC3052 NPN IS=43.773f BF=375.71 VAF=86.6 IKF=.7 ISE=43.773f NE=1.7679 BR=8.5951 VAR=5 IKR=10.01m ISC=145.43p NC=2.2998 RB=9.7807 RC=.6642 CJE=15.662p VJE=.83869 MJE=.38051 CJC=6.4060p VJC=.46595 MJC=.2832 TF=558.14p XTF=294.17 VTF=315.74 ITF=4.6695 TR=195.43n XTB=1.5

* NK: .68987
