* 2SC3423
* bjt/npn/2sc3423.mod

.model 2sc3423 npn IS=14f BF=130 VAF=50 IKF=300m BR=5.61 VAR=500 RB=10 RE=0.01 RC=0.8 CJE=5p VJE=0.7 MJE=0.5 TF=795.77p XTF=7 VTF=6 ITF=50m CJC=4.4p VJC=0.6 MJC=0.286 XCJC=0.5 TR=4n XTB=1.5 EG=1.11 XTI=3 FC=0.5
