* 2SC3421
* bjt/npn/2sc3421.mod

.MODEL 2SC3421 NPN BR=0.01 CJE=1E-13 EG=1.11 FC=0.5 IKF=0.373 IKR=1 IRB=0.0283 IS=1.07E-14 ISC=1E-13 ISE=6.38E-14 ITF=0 MJC=0.33 MJE=0.33 NC=2 NE=1.22 NF=0.898 NR=1.1 RB=9.33 RBM=1.24 RE=0.000124 TR=1.9743E-6 VAF=31.6 VAR=50 VJC=0.75 VJE=0.75 VTF=1E+06 XTB=2.4 XTI=2.5 BF=2.150000E+02 CJC=3.610000E-11 RC=2.640000E-01 TF=1.320000E-09 XTF=1
