* 2SC3600
* bjt/npn/2sc3600.mod

.model 2sc3600 npn IS=20.9f BF=95 VAF=80 IKF=1.9 BR=0.2138 VAR=20 IKR=0.5 RB=4.0 RBM=4.0 RE=0.4 RC=3 CJE=5.84p VJE=0.5 MJE=0.3083 TF=340p XTF=1 VTF=10.0 ITF=8 CJC=5.32p VJC=0.5 MJC=0.3271 XCJC=0.5 TR=10n XTB=2.3 EG=1.11 XTI=3 FC=0.5
