* 2SC3503_CORDELL
* bjt/npn/2sc3503_cordell.mod

.MODEL 2SC3503_Cordell npn IS=40f BF=170 VAF=769 IKF=0.08 ISE=200f NE=1.5 NF=1.0 RB=75 RC=1.5 RE=0.1 CJE=95p MJE=0.35 VJE=0.75 CJC=7p MJC=0.35 VJC=0.75 FC=0.5 TF=585p XTF=10000 VTF=35 ITF=20 TR=10n BR=0.6 IKR=0.05 EG=0.75 XTB=1.5 XTI=3 NC=1.5 ISC=7f NR=1.0 VAR=100 IRB=3e-6 RBM=0.035 .0

* mfg: CA031111
