* 2SC3357
* bjt/npn/2sc3357.mod

.model 2SC3357 NPN (IS=684.2e-18 BF=161.1 VAF=51 IKF=574.6m BR=10.71 VAR=2.1 IKR=28.05m ISE=1.0e-18 NE=1.193 ISC=6.211e-18 NC=1.1 RB=3 IRB=75.9e-5 RBM=1 RE=2.67 RC=3.5 CJE=1.847p VJE=1.014 MJE=464.8m CJC=1.086p VJC=617.4m MJC=353.8m XCJC=0.1 FC=0.5 TF=23p XTF=0.39 VTF=0.668 ITF=0.06 TR=100p PTF=20 EG=1.11 XTI=3 XTB=0)

* Vceo: 12
* Icrating: 100m
* mfg: NEC
