* 2SC3518
* bjt/npn/2sc3518.mod

.MODEL 2SC3518 NPN IS=709.89f BF=431.07 VAF=57.697 IKF=19.978 ISE=709.93f NE=1.3389 BR=499.5 VAR=100 IKR=5.0102 ISC=817.89f NC=1.1585 NK=.94521 RB=.74114 RC=46.045m CJE=1.2537n VJE=.7026 MJE=.35297 CJC=248.80p VJC=.57919 MJC=.41657 TF=1.3153n XTF=102.32 VTF=4.4459 ITF=92.645 TR=49.083n TRC1=2m TRB1=3.0E-2 XTB=1.5
