* 2SC4542
* bjt/npn/2sc4542.mod

.MODEL 2SC4542 NPN(IS=446.20f BF=14.226 VAF=100 IKF=19.980 XTB=1.5 ISE=468.83p NE=1.9980 BR=.1001 VAR=100 IKR=10.000m ISC=446.20f CJE=2.0000p CJC=510.12p MJC=.33333 TF=47.976n XTF=10 VTF=10 ITF=1 TR=58.992E-6)

* NK: .1001
* Vceo: 1500
* Icrating: 10
* mfg: Japan
