* 2SC4682
* bjt/npn/2sc4682.mod

.MODEL 2SC4682 NPN (IS=10f BF=2200 ne=2 ise=300f VAF=100 IKF=1.25 XTB=1.5 BR=400 rc=80m rb=3 VAR=50 IKR=300m nc=2 ISC=10p CJE=500p CJC=70p MJC=.33333 TF=90p tr=5n XTF=10 VTF=10 ITF=1 Vceo=15 Icrating=3 mfg=Toshiba) ;my
