* 2SC4098
* bjt/npn/2sc4098.mod

.MODEL 2SC4098 NPN IS=40f BF=378.97 VAF=100 IKF=.11754 ISE=403.75f NE=1.4655 BR=6.6209 VAR=100 IKR=11.942m ISC=41.950p NC=2.0763 RB=12.661 RC=1.0143 CJE=3.8356p MJE=.37142 CJC=2p MJC=.19187 TF=299.22p XTF=26.349 VTF=8.3572 ITF=1.0238 TR=26.534n XTB=1.5

* NK: .82547
