* 2SC4154
* bjt/npn/2sc4154.mod

.MODEL 2SC4154 NPN IS=153.7p BF=168.7 VAF=100 IKF=.1918 ISE=153.7p NE=1.605 VAR=100 IKR=10m CJC=6.414p VJC=.35 MJC=.3214 TF=910.2p XTF=1.534n VTF=5.262 ITF=190.6 TR=10n
