* 2SC5171_
* bjt/npn/2sc5171_.mod

.MODEL 2SC5171_ NPN (BF=200 BR=122.6733m CJC=48p CJE=500p FC=0.5 IKF=10 IKR=10m IS=10f ISC=0.0026757f ISE=200f ITF=2 MJC=0.36 MJE=0.33 NE=1.4 NF=859m RB=1.8 RC=35.72m RE=0.11 TF=600p TR=10n VAF=100 VAR=20 VJC=0.5 VJE=0.67 VTF=10 XTF=10)
