* 2SC5171
* bjt/npn/2sc5171.mod

.MODEL 2SC5171 NPN( IS=10f BF=210 VAF=100 IKF=10m XTB=1.5 BR=.1001 VAR=100 IKR=10m ISC=10f CJE=2p CJC=38.866p MJC=.33333 TF=83.239p XTF=10 VTF=10 ITF=1)
