* 2SC5150
* bjt/npn/2sc5150.mod

.MODEL 2SC5150 NPN(IS=1.1585f BF=14.353 VAF=100 IKF=19.980 XTB=1.5 ISE=1.1585f NE=1.9980 BR=.1001 VAR=100 IKR=10.000m ISC=1.1585f CJE=2.0000p CJC=449.39p MJC=.33333 TF=10.000n XTF=10 VTF=10 ITF=1 TR=79.661E-6)

* NK: .1001
* Vceo: 1700
* Icrating: 10
* mfg: Japan
