* 2SC945
* bjt/npn/2sc945.mod

.model 2sc945 npn IS=3.577E-14 BF=2.382E+02 NF=1.01 VAF=1.206E+02 IKF=3.332E-01 ISE=3.038E-16 NE=1.205 BR=1.289E+01 NR=1.015 VAR=1.533E+01 IKR=2.037E-01 ISC=3.972E-14 NC=1.115 RB=3.680E+01 IRB=1.004E-04 RBM=1 RE=8.338E-01 RC=1.557E+00 CJE=1.877E-11 VJE=7.211E-01 MJE=3.486E-01 TF=4.149E-10 XTF=1.000E+02 VTF=9.956 ITF=5.118E-01 CJC=6.876p VJC=3.645E-01 MJC=3.074E-01 TR=5.145E-08 XTB=1.5 EG=1.11 XTI=3 FC=0.5

* Vceo: 50
* Icrating: 100m
* MFG: NEC
