* 2SD1483
* bjt/npn/2sd1483.mod

.model 2sd1483 NPN(Is=50.43p Xti=3 Eg=1.11 Vaf=100 Bf=1.909K Ise=70.47p Ne=2.02 Ikf=2.323 Nk=.8578 Xtb=1.5 Var=100 Br=76.92 Isc=51.14p Nc=2.259 Ikr=68.13m Rc=.1355 Cjc=28.59p Mjc=.3645 Vjc=.3907 Fc=.5 Cje=5p Mje=.3333 Vje=.75 Tr=10n Tf=1n Itf=1 Xtf=0 Vtf=10)
