* 2SD1898
* bjt/npn/2sd1898.mod

.MODEL 2SD1898 NPN IS=280f BF=199.8 VAF=40 IKF=4.6752 ISE=280f NE=1.5882 BR=404.98 VAR=100 IKR=.40942 ISC=4.9564p NC=1.2884 RE=40m RB=2.0332 RC=51.971m CJE=311.85p MJE=.35932 CJC=41.583p MJC=.46676 TF=615.97p XTF=27.568 VTF=62.853 ITF=14.82 TR=99.286n XTB=1.5

* NK: .97272
