* 2SD1780
* bjt/npn/2sd1780.mod

.model 2sd1780 NPN(Is=143.4f Xti=3 Eg=1.11 Vaf=100 Bf=1.993K Ise=3.776p Ne=2.055 Ikf=3.435 Xtb=1.5 Var=100 Br=417.7 Isc=7.458p Nc=1.61 Ikr=.2559 Rc=83.96m Cjc=2p Mjc=.3333 Vjc=.75 Fc=.5 Cje=5p Mje=.3333 Vje=.75 Tr=36.36n Tf=1n Itf=1 Xtf=0 Vtf=10)

* Nk: .9089
