* 2SD1609
* bjt/npn/2sd1609.mod

.MODEL 2SD1609 NPN AF=1 BR=0.00356 CJE=50p EG=1.11 FC=0.5 IKF=0.0077 IKR=1 IRB=2.17E-05 IS=5.24E-14 ISC=1E-13 ISE=6.18E-11 ITF=0.789 MJC=0.248 MJE=0.33 MJS=0.33 NC=2 NE=2 NF=0.98 NR=1.24 RB=1 RBM=0.01 RE=0.000287 VAF=263 VAR=50 VJC=0.3 VJE=0.75 VJS=0.75 VTF=996000 XTB=0.001 XTI=2.5 BF=335 CJC=8.99p RC=1.28 TF=7.9E-10 XTF=2.85
