* 2SD1863
* bjt/npn/2sd1863.mod

.model 2SD1863 NPN (IS=280.00f BF=199.80 VAF=40 IKF=4.6752 ISE=280.00f NE=1.5882 BR=404.98 VAR=100 IKR=.40942 ISC=4.9564p NC=1.2884 RE=40.000m RB=2.0332 RC=51.971m CJE=311.85p MJE=.35932 CJC=41.583E- 12 MJC=.46676 TF=615.97p XTF=27.568 VTF=62.853 ITF=14.820 TR=99.286n XTB=1.5000)

* NK: .97272
* Vceo: 80
* Icrating: 1
* mfg: ROHM
