* 2SD1864
* bjt/npn/2sd1864.mod

.model 2SD1864 NPN (IS=1.2000p BF=91.918 VAF=5.7704 IKF=4.5333 ISE=1.2000p NE=1.4873 BR=344.81 VAR=100 IKR=81.827m ISC=1.4049n NC=1.6296 RE=90.000m RB=.21142 RC=33.065m CJE=562.04p MJE=.559 CJC=145.17p MJC=.43988 TF=1.6562n XTF=57.091 VTF=180.89 ITF=24.514 TR=66.557n XTB=1.5000)

* Vceo: 50
* Icrating: 3
* mfg: ROHM
