* 2SD1458
* bjt/npn/2sd1458.mod

.model 2sd1458 NPN(Is=50.43p Xti=3 Eg=1.11 Vaf=100 Bf=1.909K Ise=70.47p Ne=2.02 Ikf=2.323 Xtb=1.5 Var=100 Br=76.92 Isc=51.14p Nc=2.259 Ikr=68.13m Rc=.1355 Cjc=26.3p Mjc=.3621 Vjc=.4802 Fc=.5 Cje=5p Mje=.3333 Vje=.75 Tr=10n Tf=1n Itf=1 Xtf=0 Vtf=10)

* Nk: .8578
