* 2SD1938
* bjt/npn/2sd1938.mod

.model 2sd1938 NPN(Is=43.03f Xti=3 Eg=1.11 Vaf=100 Bf=1.318K Ise=43.04f Ne=2 Ikf=28.32m Xtb=1.5 Var=100 Br=45 Isc=43.03f Nc=2 Ikr=26.89m Rc=1.6 Cjc=12.35p Mjc=.3429 Vjc=.3905 Fc=.5 Cje=5p Mje=.3333 Vje=.75 Tr=10n Tf=1n Itf=1 Xtf=0 Vtf=10)

* Nk: .4038
