* 2SD2704K
* bjt/npn/2sd2704k.mod

.MODEL 2SD2704K NPN IS=250f BF=2.3219k VAF=100 IKF=25.778m ISE=270.34f NE=1.8069 BR=45.088 VAR=100 IKR=9.4796 ISC=411.09f NC=2.0254 RE=.4 RB=3.1823 RC=58.585m CJE=8.7706p MJE=.66324 CJC=15.709p MJC=.53302 TF=3.8352n XTF=32.147 VTF=472.13 ITF=85.294 TR=7.0574n XTB=1.5

* NK: .54182
* Vceo: 20
* Icrating: 300m
* mfg: Rohm
