* 2SD2654
* bjt/npn/2sd2654.mod

.MODEL 2SD2654 NPN IS=400f BF=1.3544k VAF=69.931 IKF=.16193 ISE=400.02f NE=1.6742 BR=9.6205 VAR=100 IKR=1.1285 ISC=725.25f NC=2.026 NK=.74645 RE=.3 RB=16.704 RC=.12233 CJE=27.484p MJE=.37516 CJC=6.554p MJC=.31941 TF=474.5p XTF=38.562 VTF=63.249 ITF=2.3187 TR=79.789n XTB=1.5 mfg=ROHM
