* 2SD2537
* bjt/npn/2sd2537.mod

.MODEL 2SD2537 NPN IS=1.4p BF=1.1790k VAF=22.2 IKF=5.5281 ISE=1.4p NE=1.9029 BR=60.245 VAR=100 IKR=.79198 ISC=1.5775p NC=2.1625 NK=.84174 RE=50m RB=.98045 RC=35.460m CJE=202.04p MJE=.52038 CJC=65.705p MJC=.44672 TF=527.26p XTF=45.284 VTF=31.121 ITF=22.741 TR=14.999n XTB=1.5 mfg=ROHM
