* 2SD2114K
* bjt/npn/2sd2114k.mod

.MODEL 2SD2114K NPN IS=1.5p BF=1.0520k VAF=36.7 IKF=3.2468 ISE=1.5p NE=2.3002 BR=52.73 VAR=100 IKR=.37406 ISC=1.7779p NC=2.1499 RE=.1 RB=2.7608 RC=.17064 CJE=51.912p MJE=.39966 CJC=22.112p MJC=.38184 TF=384.39p XTF=23.667 VTF=33.125 ITF=5.091 TR=6.2144n XTB=1.5

* NK: .96651
* mfg: ROHM
