* 2SD2153
* bjt/npn/2sd2153.mod

.MODEL 2SD2153 NPN IS=2p BF=1.3807k VAF=23.841 IKF=1.6517 ISE=2p NE=2.1217 BR=83.056 VAR=100 IKR=.2628 ISC=2p NC=5.0113 RE=70m RB=.47007 RC=14.429m CJE=196.60p MJE=.58268 CJC=73.348p MJC=.45226 TF=407.47p XTF=129.56 VTF=13.874 ITF=9.8498 TR=17.625n XTB=1.5

* mfg: ROHM
