* 2SD2012
* bjt/npn/2sd2012.mod

.MODEL 2SD2012 NPN BR=20 CJE=1E-13 EG=1.11 FC=0.5 IKF=0.214 IKR=1 IRB=0.000422 IS=6.83p ISC=1E-13 ISE=2.3p ITF=0 MJC=0.33 MJE=0.33 NC=2 NE=1.36 NF=1.03 NR=1.04 RB=56.2 RBM=0.01 RE=0.0001 VAF=84.7 VAR=50 VJC=0.75 VJE=0.75 VTF=1E+06 XTB=0.95 XTI=3.5 BF=6.92E+02 CJC=8.43E-11 RC=1.53E-01 TF=5.3E-08 XTF=1
