* 2SD667
* bjt/npn/2sd667.mod

.MODEL 2SD667 NPN ( AF=1 BR=11.9 CJE=4.91E-10 CJS=0 EG=1.11 FC=0.5 IKF=0.376 IKR=1 IRB=0.227 IS=2.93p ISC=1E-13 ISE=6.87E-13 ITF=100 KF=0 MJC=0.449 MJE=0.33 NC=2 NE=1.36 NF=1.08 NR=1.03 RB=6.91 RBM=2.35 RE=0.01 TR=0 VAF=41.6 VAR=50 VJC=0.518 VJE=0.75 VTF=1E+06 XTB=0.001 XTI=1 BF=3.640000E+02 CJC=4.110000E-11 RC=2.450000E-01 TF=8.520000E-10 XTF=5.270000E+03)
