* 2SD965
* bjt/npn/2sd965.mod

.model 2sd965 npn IS=569.2f BF=400 NF=0.9993 VAF=80 IKF=4.444 ISE=2.7373p NE=1.6036 BR=10.2 NR=1.03 VAR=30 IKR=0.466 ISC=10.56p NC=1.055 RB=200 IRB=270u RBM=50 RE=5m RC=0.5 CJE=251.6p VJE=0.5 MJE=0.3674 TF=7.377E-10 XTF=17.6 VTF=1.31 ITF=7.91 CJC=93.77p VJC=0.6 MJC=0.3283 XCJC=0.5 TR=23n XTB=1.61 EG=1.11 XTI=3 FC=0.5
