* 2T3117A
* bjt/npn/2t3117a.mod

.model 2T3117A NPN (Is=98.35f Xti=3 Eg=1.11 Vaf=123.5 Bf=1.158K Ne=1.356 Ise=1.164p Ikf=.224 Xtb=1.5 Var=96 Br=.343 Nc=2 Isc=1.12p Ikr=1.52 Rb=40.7 Rc=.17 Cjc=14.6p Vjc=.75 Mjc=.33 Fc=.5 Cje=56.2p Vje=.69 Mje=.33 Tr=254.8n Tf=281.9p Itf=1.63 Vtf=40 Xtf=2)

* mfg: USSR
