* BC109C
* bjt/npn/bc109c.mod

.model BC109C NPN(Is=7.049f Xti=3 Eg=1.11 Vaf=28.14 Bf=677 Ise=7.049f Ne=1.38 Ikf=96.23 Xtb=1.5 Br=2.209 Isc=250.3p Nc=2.002 Ikr=10.73 Rc=1.433 Cjc=5.38p Mjc=.329 Vjc=.6218 Fc=.5 Cje=11.5p Mje=.2717 Vje=.5 Tr=10n Tf=437.8p Itf=3.097 Xtf=12.85 Vtf=10)

* Nk: .5
* Vceo: 30
* Icrating: 100m
* mfg: Philips
