* BC147
* bjt/npn/bc147.mod

.model BC147 NPN(Is=67.34f Xti=3 Eg=1.11 Vaf=45.39 Bf=1.717K Ise=589f Ne=1.516 Ikf=27.52m Xtb=1.5 Br=1 Isc=0 Nc=2 Ikr=0 Rc=0 Cjc=6p Mjc=.333 Vjc=.75 Fc=.5 Cje=12p Mje=.3333 Vje=.75 Tr=404.7n Tf=472p Itf=113.6 Xtf=1.94 Vtf=10)

* Nk: .8051
