* BC211
* bjt/npn/bc211.mod

.model BC211 NPN(Is=48f Xti=3 Eg=1.11 Vaf=45 Bf=203 Ise=50f Ne=1.5 Ikf=0 Nk=.7 Xtb=1.5 Br=5.5 Isc=48f Nc=2 Ikr=0 Rc=.7 Cjc=25p Mjc=.417 Vjc=.75 Fc=.5 Cje=85p Mje=.3431 Vje=.75 Tr=100n Tf=800p Itf=1.2 Xtf=10 Vtf=5 RCO=5 GAMMA=6E-8 QCO=1E-11)
