* BC368
* bjt/npn/bc368.mod

.model BC368 NPN(Is=14.06f Xti=3 Eg=1.11 Vaf=100 Bf=187.6 Ise=137.2f Ne=1.468 Ikf=4.103 Nk=.5507 Xtb=1.5 Br=4.541 Isc=44.13f Nc=1.471 Ikr=1.701 Rc=91m Cjc=52.24p Mjc=.3333 Vjc=.5 Fc=.5 Cje=156p Mje=.3333 Vje=.5 Tr=10n Tf=964.8p Itf=595.3 Xtf=1.001K Vtf=10 VCEO=25 ICRATING=1 MFG=SIEMENS)
