* BC550_CORDELL
* bjt/npn/bc550_cordell.mod

.MODEL BC550_Cordell npn IS=45f BF=689 VAF=162 IKF=0.09 ISE=4600f NE=2 NF=0.9965 RB=167 RC=1 RE=0.04 CJE=18.7p MJE=0.35 VJE=0.75 CJC=6.2p MJC=0.25 VJC=0.4 FC=0.5 TF=595p XTF=10 VTF=10 ITF=1 TR=10n BR=12.2 IKR=0.34 EG=1.2 XTB=1.65 XTI=3 NC=0.996 NR=1.0 VAR=120 IRB=7e-5 RBM=1.1 XCJC=0.6 ISC=5f

* mfg: CA030111
