* BC550B
* bjt/npn/bc550b.mod

.MODEL BC550B NPN(IS=1.8E-14 ISE=5.0E-14 ISC=1.72E-13 XTI=3 BF=400 BR=35.5 IKF=0.14 IKR=0.03 XTB=1.5 VAF=80 VAR=12.5 VJE=0.58 VJC=0.54 RE=0.6 RC=0.25 RB=0.56 CJE=13p CJC=4p XCJC=0.75 FC=0.5 NF=0.9955 NR=1.005 NE=1.46 NC=1.27 MJE=0.33 MJC=0.33 TF=0.64n TR=50.72n EG=1.11 VCEO=50 ICRATING=100M MFG=ZETEX)
