* BC817-16
* bjt/npn/bc817-16.mod

.model BC817-16 NPN(Is=32.53f Xti=3 Eg=1.11 Vaf=100 Bf=190.4 Ise=299f Ne=1.583 Ikf=.7695 Nk=.5467 Xtb=1.5 Br=6.313 Isc=138f Nc=2.053 Ikr=.187 Rc=.4216 Cjc=24.29p Mjc=.3333 Vjc=.5 Fc=.5 Cje=71.14p Mje=.3333 Vje=.5 Tr=10n Tf=660.1p Itf=2.204 Xtf=66.65 Vtf=10 Vceo=50 Icrating=500m mfg=Siemens)
