* BC818-25
* bjt/npn/bc818-25.mod

.model BC818-25 NPN(Is=32.53f Xti=3 Eg=1.11 Vaf=100 Bf=294.4 Ise=318.5f Ne=1.642 Ikf=.8311 Xtb=1.5 Br=5.855 Isc=199.7f Nc=2.09 Ikr=.1075 Rc=.4196 Cjc=24.29p Mjc=.3333 Vjc=.5 Fc=.5 Cje=71.14p Mje=.3333 Vje=.5 Tr=10n Tf=660.8p Itf=2.569 Xtf=88.29 Vtf=10)

* Nk: .5663
* Vceo: 30
* Icrating: 500m
* mfg: Siemens
