* BC849C
* bjt/npn/bc849c.mod

.model BC849C NPN(Is=7.049f Xti=3 Eg=1.11 Vaf=29.03 Bf=462.4 Ise=57.19f Ne=2.002 Ikf=.1609 Xtb=1.5 Br=3.988 Isc=10.68f Nc=2.417 Ikr=2.721 Rc=1.374 Cjc=7.287p Mjc=.3333 Vjc=.5 Fc=.5 Cje=9.485p Mje=.3333 Vje=.5 Tr=10n Tf=663.1p Itf=1.423 Xtf=14.94 Vtf=10)

* Nk: .6124
* Vceo: 30
* Icrating: 100m
* mfg: Siemens
