* BC846A
* bjt/npn/bc846a.mod

.model BC846A NPN(Is=7.049f Xti=3 Eg=1.11 Vaf=106.8 Bf=182.9 Ise=85.16f Ne=1.709 Ikf=.1196 Nk=.5227 Xtb=1.5 Br=3.988 Isc=10.68f Nc=2.417 Ikr=2.721 Rc=1.374 Cjc=7.287p Mjc=.3333 Vjc=.5 Fc=.5 Cje=9.485p Mje=.3333 Vje=.5 Tr=10n Tf=662.3p Itf=1.577 Xtf=14.27 Vtf=10 Vceo=80 Icrating=100m mfg=Siemens)
