* BC850B
* bjt/npn/bc850b.mod

.model BC850B NPN(Is=7.049f Xti=3 Eg=1.11 Vaf=62.37 Bf=279.1 Ise=59.16f Ne=1.81 Ikf=.2201 Nk=.6305 Xtb=1.5 Br=3.816 Isc=16.17f Nc=2.394 Ikr=1.859 Rc=1.508 Cjc=7.287p Mjc=.3333 Vjc=.5 Fc=.5 Cje=9.485p Mje=.3333 Vje=.5 Tr=10n Tf=664p Itf=4.664 Xtf=147 Vtf=10 Vceo=80 Icrating=100m mfg=Siemens)
