* BCP54-16
* bjt/npn/bcp54-16.mod

.model BCP54-16 npn is=6.119e-14 bf=130.4 nf=0.9948 vaf=54.27 ikf=0.8 ise=5.844f ne=1.469 br=14.53 nr=0.9905 var=30 ikr=0.2049 isc=1.342e-13 nc=1.183 rb=0.5 irb=1e-06 rbm=0.5 re=0.1114 rc=0.082 cje=1.234e-10 vje=0.6917 mje=0.338 tf=6.543e-10 xtf=223.8 vtf=1.892 itf=10 cjc=3.49e-11 vjc=0.5 mjc=0.388 xcjc=0.15 tr=999n xtb=0 eg=1.11 xti=3 fc=0.9232 Vceo=45 Icrating=1 mfg=Philips
