* BCV61C
* bjt/npn/bcv61c.mod

.model BCV61C NPN(IS=45.000f ISE=55.668f ISC=1.084p XTI=3.200 BF=480 BR=7.745 IKF=0.708 IKR=1.0 XTB=1.400 VAF=74.0 VAR=14.0 VJE=0.690 VJC=0.750 RE=0.350 RC=1.445 RB=9.0 RBM=4.500 IRB=0.100m CJE=13.050p CJC=4.100p XCJC=0.650 FC=0.750 NF=1.01 NR=1.015 NE=2.567 NC=4.063 MJE=0.375 MJC=0.42 TF=0.62n TR=2.5n PTF=1 ITF=0.720 VTF=1.0 XTF=68.0 EG=1.110 KF=1n AF=1)

* MFG: Siemens
