* BCW65B
* bjt/npn/bcw65b.mod

.model BCW65B NPN(Is=44.97f Xti=3 Eg=1.11 Vaf=100 Bf=364.7 Ise=44.99f Ne=1.337 Ikf=1.029 Nk=.7096 Xtb=1.5 Br=5.792 Isc=1.332p Nc=1.307 Ikr=6.716 Rc=.421 Cjc=14.57p Mjc=.3333 Vjc=.5 Fc=.5 Cje=71.14p Mje=.3333 Vje=.5 Tr=10n Tf=707.9p Itf=5.32 Xtf=23.35 Vtf=10 Vceo=60 Icrating=800m mfg=Siemens)
