* BCW60FN
* bjt/npn/bcw60fn.mod

.model BCW60FN NPN(Is=26.39f Xti=3 Eg=1.11 Vaf=35.7 Bf=449.2 Ise=191.3f Ne=2.138 Ikf=1.969 Xtb=1.5 Br=9.116 Isc=14.45p Nc=1.778 Ikr=3.14 Rc=3.154 Cjc=11.51p Mjc=.3626 Vjc=.5 Fc=.5 Cje=8.397p Mje=.3865 Vje=.5 Tr=10n Tf=596.3p Itf=2.629 Xtf=282 Vtf=10)

* Nk: .5
* Vceo: 32
* Icrating: 200m
* mfg: Siemens
