* BCW66G
* bjt/npn/bcw66g.mod

.model BCW66G NPN(Is=893.9E-21 Xti=3 Eg=1.11 Vaf=100 Bf=452.8 Ise=1.053E-18 Ne=1.21 Ikf=.9479 Xtb=1.5 Br=5.401 Isc=1.897f Nc=1.415 Ikr=3.105 Rc=.4201 Cjc=14.57p Mjc=.3333 Vjc=.5 Fc=.5 Cje=71.14p Mje=.3333 Vje=.5 Tr=10n Tf=689.5p Itf=6.121 Xtf=23.27 Vtf=10

* Nk: .6981
* Vceo: 75
* Icrating: 800m
* mfg: Siemens
