* BCW60D
* bjt/npn/bcw60d.mod

.model BCW60D NPN(IS=20f VAF=45 BF=500 IKF=1.5 XTB=1.5 BR=5 CJC=20p CJE=8p TR=100n TF=600p RB=10 RC=3 RE=1 Vceo=32 Icrating=200m mfg=ROHM)
