* BCW65C
* bjt/npn/bcw65c.mod

.model BCW65C NPN(Is=44.97f Xti=3 Eg=1.11 Vaf=100 Bf=500.5 Ise=45.03f Ne=1.363 Ikf=1.017 Nk=.7023 Xtb=1.5 Br=5.448 Isc=1.983p Nc=1.344 Ikr=6.609 Rc=.4217 Cjc=14.57p Mjc=.3333 Vjc=.5 Fc=.5 Cje=71.14p Mje=.3333 Vje=.5 Tr=10n Tf=697.1p Itf=2.639 Xtf=24.55 Vtf=10 Vceo=60 Icrating=800m mfg=Siemens)
