* BCW65A
* bjt/npn/bcw65a.mod

.MODEL BCW65A NPN(IS=3.941445E-14 ISE=7.4025f ISC=3.157E-13 XTI=3 BF=175 BR=20.5 IKF=0.8 IKR=0.1 XTB=1.5 VAF=109.45 VAR=14.25 VJE=0.65 VJC=0.505 RE=0.1259 RC=0.0539 RB=1.1 CJE=63p CJC=15.8p XCJC=0.75 FC=0.5 NF=1 NR=0.974 NE=1.3 NC=1.2 MJE=0.39 MJC=0.39 TF=0.75n TR=85n EG=1.11 VCEO=60 ICRATING=800m MFG=ZETEX)
