* BCW60A
* bjt/npn/bcw60a.mod

.model BCW60A NPN(IS=20f VAF=100 BF=120 IKF=0.8 XTB=1.5 BR=5 CJC=20p CJE=8p TR=100n TF=600p RB=10 RC=3 RE=1)

* Vceo: 32
* Icrating: 200m
* mfg: ROHM
