* BCW66F
* bjt/npn/bcw66f.mod

.model BCW66F NPN(Is=44.97f Xti=3 Eg=1.11 Vaf=100 Bf=242.4 Ise=44.98f Ne=1.302 Ikf=1.006 Xtb=1.5 Br=5.128 Isc=6.206p Nc=1.474 Ikr=6.858 Rc=.4184 Cjc=14.57p Mjc=.3333 Vjc=.5 Fc=.5 Cje=71.14p Mje=.3333 Vje=.5 Tr=10n Tf=707.7p Itf=5.249 Xtf=23.37 Vtf=10)

* Nk: .7057
* Vceo: 75
* Icrating: 800m
* mfg: Siemens
