* BCX54
* bjt/npn/bcx54.mod

.model BCX54 npn is=3.06f bf=1.29e+02 nf=8.55e-01 vaf=7.24e+02 ikf=9.06e-01 ise=1.62e-16 ne=1 br=2.92 nr=9.10e-01 var=5.46e+01 ikr=1 isc=4.08e-14 nc=1 rb=1.65e+01 irb=2.38e-02 rbm=1.73e-02 re=1.26e-02 rc=3.11e-01 cje=1.17e-10 vje=3.00e-01 mje=4.22e-01 tf=1.42n xtf=7.75e-01 vtf=9.99e+05 itf=5.64e-01 cjc=4.85e-11 vjc=3.00e-01 mjc=5.09e-01 tr=1u xtb=0 eg=1.11 xti=3 fc=0.5

* Vceo: 45
* Icrating: 1
* mfg: Philips
