* BCX70J
* bjt/npn/bcx70j.mod

.model BCX70J NPN(Is=26.39f Xti=3 Eg=1.11 Vaf=62.37 Bf=331.9 Ise=278.6f Ne=2.004 Ikf=2.57 Xtb=1.5 Br=9.451 Isc=15.74p Nc=1.797 Ikr=2.344 Rc=3.117 Cjc=11.51p Mjc=.3626 Vjc=.5 Fc=.5 Cje=8.397p Mje=.3865 Vje=.5 Tr=10n Tf=597.1p Itf=2.501 Xtf=233.9 Vtf=10)

* Nk: .5
* Vceo: 45
* Icrating: 200m
* mfg: Siemens
