* BCX70H
* bjt/npn/bcx70h.mod

.model BCX70H NPN(Is=26.39f Xti=3 Eg=1.11 Vaf=79.03 Bf=243.1 Ise=274.6f Ne=1.859 Ikf=1.798 Nk=.5 Xtb=1.5 Br=8.91 Isc=13.41p Nc=1.847 Ikr=7.019 Rc=3.011 Cjc=11.51p Mjc=.3626 Vjc=.5 Fc=.5 Cje=8.397p Mje=.3865 Vje=.5 Tr=10n Tf=596.8p Itf=2.553 Xtf=234.7 Vtf=10 Vceo=45 Icrating=200m mfg=Siemens)
