* BCX70G
* bjt/npn/bcx70g.mod

.model BCX70G NPN(Is=26.39f Xti=3 Eg=1.11 Vaf=106.8 Bf=167.4 Ise=254.6f Ne=1.806 Ikf=1.363 Xtb=1.5 Br=9.901 Isc=20.57p Nc=1.912 Ikr=3.201 Rc=3.001 Cjc=11.51p Mjc=.3626 Vjc=.5 Fc=.5 Cje=8.397p Mje=.3865 Vje=.5 Tr=10n Tf=597.7p Itf=2.959 Xtf=293.8 Vtf=10)

* Nk: .5
* Vceo: 45
* Icrating: 200m
* mfg: Siemens
