* BCY58-9
* bjt/npn/bcy58-9.mod

.model BCY58-9 NPN(Is=64.04f Xti=3 Eg=1.11 Vaf=62.37 Bf=473.2 Ise=549.7f Ne=1.721 Ikf=.1237 Xtb=1.5 Br=1 Isc=22.53n Nc=3.624 Ikr=10.72 Rc=1.261 Cjc=11.15p Mjc=.3333 Vjc=.5 Fc=.5 Cje=16.78p Mje=.3333 Vje=.5 Tr=622.7n Tf=423.4p Itf=3.503 Xtf=107 Vtf=10)

* Nk: .6057
* Vceo: 32
* Icrating: 200m
* mfg: Philips
