* BCY58-10
* bjt/npn/bcy58-10.mod

.model BCY58-10 NPN(Is=64.04f Xti=3 Eg=1.11 Vaf=35.7 Bf=676 Ise=444.3f Ne=1.771 Ikf=.1013 Xtb=1.5 Br=1 Isc=38.48n Nc=4.097 Ikr=5.942 Rc=1.19 Cjc=11.15p Mjc=.3333 Vjc=.5 Fc=.5 Cje=16.78p Mje=.3333 Vje=.5 Tr=609.8n Tf=423.5p Itf=3.794 Xtf=108.1 Vtf=10)

* Nk: .6259
* Vceo: 32
* Icrating: 200m
* mfg: Philips
