* BCY58-8
* bjt/npn/bcy58-8.mod

.model BCY58-8 NPN(Is=64.04f Xti=3 Eg=1.11 Vaf=79.03 Bf=395.1 Ise=599f Ne=1.598 Ikf=.1799 Xtb=1.5 Br=1 Isc=9.225n Nc=3.14 Ikr=16.96 Rc=1.286 Cjc=11.15p Mjc=.3333 Vjc=.5 Fc=.5 Cje=16.78p Mje=.3333 Vje=.5 Tr=629.7n Tf=423.5p Itf=2.989 Xtf=106 Vtf=10)

* Nk: .6331
* Vceo: 32
* Icrating: 200m
* mfg: Philips
