* BCY59-7
* bjt/npn/bcy59-7.mod

.model BCY59-7 NPN(Is=64.04f Xti=3 Eg=1.11 Vaf=106.8 Bf=4.957K Ise=6.195p Ne=1.686 Ikf=12.15m Nk=.4944 Xtb=1.5 Br=2.624 Isc=2.92n Nc=3.015 Ikr=3.889 Rc=1.149 Cjc=11.15p Mjc=.3333 Vjc=.5 Fc=.5 Cje=16.78p Mje=.3333 Vje=.5 Tr=638n Tf=410.8p Itf=15.08 Xtf=118.1 Vtf=10 Vceo=45 Icrating=200m mfg=Philips)
