* BD139_CORDELL
* bjt/npn/bd139_cordell.mod

.MODEL BD139_Cordell npn IS=150f BF=260 VAF=99 IKF=1.2 ISE=70f NE=1.2 NF=1.0 RB=5 RC=0.01 RE=0.08 CJE=293p MJE=0.33 VJE=0.67 CJC=49p MJC=0.39 VJC=0.52 FC=0.5 TF=585p XTF=10000 VTF=35 ITF=20 TR=10n BR=78 IKR=0.14 EG=1.21 XTB=1.14 XTI=3 NC=1.45 ISC=19p NR=1.0 VAR=7.5 IRB=0.03 RBM=0.001 XCJC=0.53 mfg=CA041311
