* BD907
* bjt/npn/bd907.mod

.model bd907 npn IS=4.150E-13 BF=337.8 NF=0.9 VAF=100 IKF=5.123E-01 ISE=2.086E-10 NE=1.609 BR=3 VAR=50 ISC=0 NC=2 RB=3.5 RC=1 CJE=1.500E-08 VJE=7.500E-01 MJE=3.300E-01 TF=3.038E-08 XTF=1.93 VTF=3.842 ITF=3.827E+01 PTF=0 CJC=3.388E-10 VJC=0.1 MJC=3.598E-01 TR=5.065E-07 XTB=1.5 EG=1.11 XTI=3 FC=0.5
