* BDP285
* bjt/npn/bdp285.mod

.model BDP285 NPN(Is=1.129p Xti=3 Eg=1.11 Vaf=100 Bf=161 Ise=31.17p Ne=1.557 Ikf=1.948=.648 Xtb=2 Br=1 Isc=23.5p Nc=1.489 Ikr=31.34m Rc=.1682 Cjc=251.5p Mjc=.5045 Vjc=.75 Fc=.5 Cje=286.3p Mje=.4961 Vje=.75 Tr=810n Tf=23.64n Itf=10.92 Xtf=.3795 Vtf=10 Rb=.1)

* Nk: 
