* BDP947
* bjt/npn/bdp947.mod

.MODEL BDP947 NPN(IS=0.650p ISE=0.178p ISC=38.669f XTI=4.900 BF=237.934 BR=25.0 IKF=3.900 IKR=3.200 XTB=2.400 VAF=135.0 VAR=22.0 VJE=0.800 VJC=0.730 RE=45.000m RC=0.173 RB=0.250 RBM=0.200 IRB=10.000m CJE=0.430n CJC=88.500p XCJC=0.723 FC=0.500 NF=1.004 NR=1.015 NE=1.649 NC=1.062 MJE=0.350 MJC=0.435 TF=1.010n TR=0.100E-6 PTF=1.0 ITF=0.900 VTF=0.350 XTF=0.900 EG=1.110 VCEO=45 ICRATING=3 MFG=SIEMENS)
