* BDX35
* bjt/npn/bdx35.mod

.model BDX35 NPN(Is=3.108p Xti=3 Eg=1.11 Vaf=100 Bf=142.3 Ise=6.491p Ne=1.454 Ikf=11.52 Xtb=1.5 Br=1.376 Isc=67.94p Nc=1.505 Ikr=.7805 Rc=.1082 Cjc=97.16p Mjc=.3333 Vjc=.5 Fc=.5 Cje=291.5p Mje=.3333 Vje=.5 Tr=1u Tf=1.557n Itf=448.8 Xtf=89.4 Vtf=10)

* Nk: .7978
* Vceo: 40
* Icrating: 5
* mfg: Philips
