* BDX37
* bjt/npn/bdx37.mod

.model BDX37 NPN(Is=3.108p Xti=3 Eg=1.11 Vaf=100 Bf=136.4 Ise=14.05p Ne=1.373 Ikf=10.46 Xtb=1.5 Br=8.022 Isc=4.708p Nc=1.658 Ikr=3.131 Rc=.1056 Cjc=97.16p Mjc=.3333 Vjc=.5 Fc=.5 Cje=291.5p Mje=.3333 Vje=.5 Tr=1u Tf=1.556n Itf=447.7 Xtf=90.04 Vtf=10)

* Nk: .7878
* Vceo: 60
* Icrating: 5
* mfg: Philips
