* BDX77
* bjt/npn/bdx77.mod

.model BDX77 NPN(Is=487.2f Xti=3 Eg=1.11 Vaf=100 Bf=14.34K Ise=391.7p Ne=1.908 Ikf=.3088 Xtb=1.5 Br=222.1 Isc=750.1f Nc=1.777 Ikr=1.062 Rc=63.13m Cjc=485.8p Mjc=.3333 Vjc=.5 Fc=.5 Cje=1.457n Mje=.3333 Vje=.5 Tr=1u Tf=13.87n Itf=5.655K Xtf=7.064 Vtf=10)

* Nk: .6439
* Vceo: 100
* Icrating: 8
* mfg: Philips
