* BF240
* bjt/npn/bf240.mod

.MODEL BF240 NPN(IS=6.686E-16 ISE=1.84f ISC=9.197f XTI=3 BF=135 BR=6.24 IKF=0.06 IKR=0.05 XTB=1.5 VAF=116.5 VAR=5.34 VJE=0.55 VJC=0.1927 RE=0.6 RC=1.8 RB=1 RBM=0.5 IRB=0.01 CJE=2.288p CJC=9.099E-13 XCJC=0.811 FC=0.8999 NF=0.9934 NR=1.003 NE=1.632 NC=1.133 MJE=0.2019 MJC=0.1982 TF=2.911E-10 TR=1m2 ITF=0.1644 VTF=1.762 XTF=54.94 EG=1.11 VCEO=40 ICRATING=25m MFG=PHILIPS)
