* BF257
* bjt/npn/bf257.mod

.model BF257 npn (IS=2.48E-14 VAF=45.7 BF=200 IKF=0.1509 NE=1.1981 ISE=1.668E-14 IKR=0.05 ISC=1p NC=1.5 NR=1 BR=5 RC=10 CJC=1.5E-11 FC=0.5 MJC=0.38 VJC=0.2 CJE=4.90E-11 MJE=0.42 VJE=0.7 TF=1.7n ITF=1 VTF=20 XTF=100 RE=0.8)
