* BF496
* bjt/npn/bf496.mod

.model BF496 NPN(IS=1e-14 BF=100 BR=1 CJE=2p CJC=2p VJE=0.75 VJC=0.75 TF=1e-08 TR=1e-08 MJE=0.33 MJC=0.33 VA=100 VAR=100 XTF=10 VTF=10 ITF=1 XTB=0 EG=1.11 XTI=3)
