* BF517
* bjt/npn/bf517.mod

.MODEL BF517 NPN(IS=0.480f ISE=7.490f ISC=0.200f XTI=3.0 BF=99.655 BR=38.400 IKF=0.190 IKR=93.200m XTB=1.600 VAF=90 VAR=7.0 VJE=0.700 VJC=0.610 RE=0.500 RC=2.680 RB=1.500 RBM=1.200 IRB=0.100m CJE=1.325p CJC=1.050p XCJC=0.400 FC=0.890 NF=1.008 NR=1.010 NE=1.762 NC=1.042 MJE=0.220 MJC=0.240 TF=56.940p TR=1.000n PTF=21.0 ITF=0.700 VTF=0.600 XTF=68.398 EG=1.110)

* VCEO: 20
* ICRATING: 25m
* MFG: SIEMENS
