* BF959
* bjt/npn/bf959.mod

.MODEL BF959 NPN (IS=10.2F NF=1 BF=78 VAF=80.5 IKF=60M ISE=16.8P NE=2 BR=4 NR=1 VAR=12 IKR=90M RE=0.515 RB=2.06 RC=0.206 XTB=1.5 CJE=1.74P VJE=1.1 MJE=0.5 CJC=2.25P VJC=0.3 MJC=0.3 TF=227P TR=158N Vceo=20 Icrating=100m mfg=Motorola)
