* BFP136
* bjt/npn/bfp136.mod

.MODEL BFP136 NPN(IS=1.5813f ISE=4.637E-14 ISC=8.0864E-18 XTI=3 BF=113.32 NR=1.8047 IKF=1.4907 IKR=0.033605 XTB=1.5 VAF=12.331 VAR=31.901 VJE=0.71518 VJC=1.1381 RE=0.22081 RC=0.01636 RB=1.0078 RBM=0 IRB=0.00083992 CJE=3.3904E-14 CJC=2.9774p XCJC=0.02899 FC=0.99886 NF=1.0653 BR=86.718 NE=1.4254 NC=1.8821 MJE=0.36824 MJC=0.31461 TF=2.0691E-11 TR=1.0033n ITF=0.0045579 VTF=0.10174 XTF=0.31338 EG=1.11 VCEO=20 ICRATING=150m MFG=SIEMENS)
