* BFP81
* bjt/npn/bfp81.mod

.MODEL BFP81 NPN(IS=1.703E-14 ISE=5.8728f ISC=1.6977E-13 XTI=3 BF=110 BR=25.974 IKF=0.22241 IKR=0.011566 XTB=1.5 VAF=35 VAR=2.3785 VJE=0.4318 VJC=0.26339 RE=1.1731 RC=0.3715 RB=5.7058 RBM=1.5489 IRB=0.00011894 CJE=3.3977E-14 CJC=6.9381E-13 XCJC=0.1254 FC=0.74346 NF=0.80846 NR=0.36321 NE=1.0668 NC=1.2237 MJE=1.7707 MJC=0.24448 TF=2.1842E-11 TR=1.2554n ITF=0.014701 VTF=0.48042 XTF=0.26781 EG=1.11 VCEO=25 ICRATING=30m MFG=SIEMENS)
