* BFQ181
* bjt/npn/bfq181.mod

.MODEL BFQ181 NPN(IS=2.8E-16 ISE=1.95f ISC=1E-17 XTI=3 BF=100 BR=1 IKF=0.018 IKR=0.5 XTB=1.5 VAF=35 VAR=360 VJE=0.85 VJC=0.75 RE=1 RC=4.5 RB=35.2 RBM=1.9 IRB=0.25 CJE=1p CJC=1E-13 XCJC=0.3 FC=0.5 NF=1 NR=1 NE=4.95 NC=2 MJE=0.33 MJC=0.33 TF=0 TR=0 ITF=0 VTF=1k0 XTF=0 EG=1.11 VCEO=20 ICRATING=20m MFG=SIEMENS)
