* BFQ196
* bjt/npn/bfq196.mod

.MODEL BFQ196 NPN(IS=1.5f ISE=5.3f ISC=1E-17 XTI=3 BF=141 BR=1 IKF=0.067 IKR=0.5 XTB=1.5 VAF=120 VAR=365 VJE=0.85 VJC=0.75 RE=0.11 RC=2.2 RB=20 RBM=1.8 IRB=0.25 CJE=3p CJC=1E-13 XCJC=0.9 FC=0.5 NF=0.95 NR=1 NE=2.17 NC=2 MJE=0.33 MJC=0.33 TF=0 TR=0 ITF=0 VTF=1k0 XTF=0 EG=1.11 VCEO=40 ICRATING=100M MFG=SIEMENS)
