* BFQ31
* bjt/npn/bfq31.mod

.MODEL BFQ31 NPN(IS=1.73E-13 ISE=241p ISC=8.31E-13 XTI=3 BF=200 BR=3.124 IKF=8.8m IKR=0.02 XTB=1.5 VAF=90 VAR=9.7 VJE=0.65 VJC=0.415 RE=2.13 RC=30 RB=17 CJE=2.27p CJC=1.2p XCJC=0.75 FC=0.5 NF=1 NR=0.9705 NE=1.701 NC=1.112 MJE=0.145 MJC=0.145 TF=0.2n TR=1n EG=1.11)

* VCEO: 30
* ICRATING: 100m
* MFG: ZETEX
