* BFQ74
* bjt/npn/bfq74.mod

.MODEL BFQ74 NPN(IS=2.2E-16 ISE=2.1f ISC=1E-17 XTI=3 BF=312 BR=1 IKF=0.02 IKR=0.5 XTB=1.5 VAF=36 VAR=60 VJE=0.85 VJC=0.75 RE=0.9 RC=3.2 RB=26 RBM=2.2 IRB=0.25 CJE=2.5p CJC=1E-14 XCJC=0.3 FC=0.5 NF=0.97 NR=1 NE=2.6 NC=2 MJE=0.33 MJC=0.33 TF=0 TR=0 ITF=0 VTF=1k0 XTF=0 EG=1.11)

* VCEO: 25
* ICRATING: 35m
* MFG: SIEMENS
