* BFR106
* bjt/npn/bfr106.mod

.MODEL BFR106 NPN(IS=1.8998f ISE=7.1424E-14 ISC=2.0992f XTI=3 BF=132.75 BR=11.407 IKF=0.44125 IKR=0.010016 XTB=1.5 VAF=15 VAR=4.1613 VJE=0.85909 VJC=0.81533 RE=1.1351 RC=0.27485 RB=1.2652 RBM=1.0893 IRB=2.8135E-5 CJE=5.0933f CJC=2.3278p XCJC=0.14496 FC=0.92887 NF=0.89608 NR=0.91008 NE=1.3235 NC=1.4602 MJE=0.69062 MJC=0.46849 TF=3.5786E-11 TR=1.2466n ITF=0.062059 VTF=0.10681 XTF=0.44444 EG=1.11 VCEO=20 ICRATING=100m MFG=SIEMENS)
