* BFX34
* bjt/npn/bfx34.mod

.model BFX34 NPN(Is=3.31p Xti=3 Eg=1.11 Vaf=100 Bf=361 Ise=465.3p Ne=1.745 Ikf=1.936 Xtb=1.5 Br=1.239 Isc=62.67p Nc=1.486 Ikr=.9787 Rc=.1321 Cjc=87.45p Mjc=.3333 Vjc=.5 Fc=.5 Cje=521.7p Mje=.3333 Vje=.5 Tr=10n Tf=1.489n Itf=17.31 Xtf=13.82 Vtf=10)

* Nk: .5128
* Vceo: 120
* Icrating: 2
* mfg: Philips
