* BFY52
* bjt/npn/bfy52.mod

.model BFY52 NPN(Is=160.8p Xti=3 Eg=1.11 Vaf=281.4 Bf=24.98K Ise=19.66n Ne=2.048 Ikf=.1072 Nk=.6601 Xtb=1.5 Br=2.015 Isc=91.99n Nc=1.566 Ikr=1.721 Rc=.4963 Cjc=16p Mjc=.3333 Vjc=.5 Fc=.5 Cje=48p Mje=.3333 Vje=.5 Tr=815.2n Tf=792.7p Itf=214.9 Xtf=2.303K Vtf=10 Vceo=40 Icrating=1 mfg=Philips)
