* BFY50
* bjt/npn/bfy50.mod

.model BFY50 NPN(Is=1.476f Xti=3 Eg=1.11 Vaf=281.4 Bf=6.07K Ise=2.327p Ne=1.652 Ikf=.1692 Nk=.6378 Xtb=1.5 Br=678.6 Isc=17.55p Nc=1.43 Ikr=.6167 Rc=.5062 Cjc=16p Mjc=.3333 Vjc=.5 Fc=.5 Cje=48p Mje=.3333 Vje=.5 Tr=1.218u Tf=1.064n Itf=214.3 Xtf=17K Vtf=10 Vceo=80 Icrating=1 mfg=Philips)
