* BFY51
* bjt/npn/bfy51.mod

.model BFY51 NPN(Is=160.8p Xti=3 Eg=1.11 Vaf=281.4 Bf=314 Ise=10.14n Ne=1.947 Ikf=.3372 Xtb=1.6 Br=1 Isc=70.08n Nc=1.483 Ikr=.9179 Rc=.5481 Cjc=16p Mjc=.3333 Vjc=.5 Fc=.5 Cje=48p Mje=.3333 Vje=.5 Tr=1.536u Tf=940.4p Itf=28.19 Xtf=1.77K Vtf=10)

* Nk: .5752
* Vceo: 60
* Icrating: 1
* mfg: Philips
