* BFY55
* bjt/npn/bfy55.mod

.model BFY55 NPN(Is=3.367p Xti=3 Eg=1.11 Vaf=310.9 Bf=94.46 Ise=33.05p Ne=1.483 Ikf=.5451 Xtb=1.5 Br=8.334 Isc=34.05p Nc=1.468 Ikr=.6541 Rc=.6467 Cjc=28.15p Mjc=.3333 Vjc=.5 Fc=.5 Cje=93.85p Mje=.3333 Vje=.5 Tr=49.58n Tf=1.782n Itf=49.71 Xtf=9.095K Vtf=10)

* Nk: .4767
* Vceo: 80
* Icrating: 1
* mfg: Philips
