* BSR14
* bjt/npn/bsr14.mod

.MODEL BSR14 NPN(IS=29.13f ISE=9.652f ISC=320.3p XTI=3.000 BF=256.7 BR=6.590 IKF=489.9m IKR=192.9m XTB=0.000 VAF=80.99 VAR=101.2 VJE=689.1m VJC=662.2m RE=193.4m RC=224.8m RB=1.000 RBM=1.000 IRB=1.000m CJE=25.89p CJC=10.11p XCJC=0.5946 FC=938.8m NF=992.6m NR=984.4m NE=1.516 NC=1.608 MJE=366.8m MJC=416m TF=293.9p TR=320n ITF=4.797 VTF=20 XTF=71.78 EG=1.110)

* VCEO: 60
* ICRATING: 800m
* MFG: PHILIPS
