* BSR40
* bjt/npn/bsr40.mod

.MODEL BSR40 NPN(IS=6E-14 ISE=1E-14 ISC=1.2E-13 XTI=3 BF=250 BR=30 IKF=0.9 IKR=0.5 XTB=1.5 VAF=270 VAR=27 VJE=0.7 VJC=0.51 RE=0.08 RC=0.08 RB=0.2 CJE=108p CJC=15.9p XCJC=0.75 FC=0.5 NF=0.99 NR=0.98 NE=1.2 NC=1.2 MJE=0.35 MJC=0.4 TF=0.8n TR=55n EG=1.11 VCEO=70 ICRATING=1 MFG=ZETEX NK=0.7 GAMMA=5n RCO=5)
