* BSS81B
* bjt/npn/bss81b.mod

.model BSS81B NPN(Is=1.009p Xti=3 Eg=1.11 Vaf=100 Bf=152.7 Ise=1.041p Ne=1.355 Ikf=.4144 Xtb=1.5 Br=3.366 Isc=136.8p Nc=1.377 Ikr=.8852 Rc=.7122 Cjc=15.66p Mjc=.3438 Vjc=.5 Fc=.5 Cje=47.1p Mje=.3333 Vje=.5 Tr=325n Tf=520.6p Itf=3.531 Xtf=83.82 Vtf=10)

* Nk: .5579
* Vceo: 35
* Icrating: 800m
* mfg: Siemens
