* BSS81C
* bjt/npn/bss81c.mod

.model BSS81C NPN(Is=1.009p Xti=3 Eg=1.11 Vaf=100 Bf=328.1 Ise=8.891p Ne=1.743 Ikf=.3947 Nk=.527 Xtb=1.5 Br=20.21 Isc=2.646n Nc=1.692 Ikr=1.242 Rc=.7827 Cjc=15.66p Mjc=.3438 Vjc=.5 Fc=.5 Cje=47.1p Mje=.3333 Vje=.5 Tr=285n Tf=520.4p Itf=3.369 Xtf=83.42 Vtf=10 Vceo=35 Icrating=800m mfg=Siemens)
