* BST40
* bjt/npn/bst40.mod

.MODEL BST40 NPN(IS=5E-14 ISE=9f ISC=5p XTI=3 BF=230 BR=5 IKF=250m IKR=0 XTB=1.5 VAF=610 VAR=45 VJE=0.65 VJC=0.3905 RE=0.07 RC=0.07 RB=7 CJE=68.6p CJC=9.26p XCJC=0.75 FC=0.5 NF=1 NR=1 NE=1.28 NC=1.3 MJE=0.241 MJC=0.241 TF=1.1n TR=0.9E-6 EG=1.11 VCEO=300 ICRATING=1 MFG=ZETEX GAMMA=3.1E-7 RCO=75)
