* BSW68A
* bjt/npn/bsw68a.mod

.model BSW68A NPN(Is=44.97f Xti=3 Eg=1.11 Vaf=100 Bf=315.4 Ise=102f Ne=1.261 Ikf=.8199 Nk=.7642 Xtb=1.5 Br=4.824 Isc=159.8f Nc=1.705 Ikr=.3971 Rc=.2572 Cjc=52p Mjc=.3767 Vjc=.5 Fc=.5 Cje=240p Mje=.2501 Vje=.5 Tr=10n Tf=1.05n Itf=2.639 Xtf=36.17 Vtf=10 Vceo=150 Icrating=1 mfg=Philips)
