* BSX19
* bjt/npn/bsx19.mod

.model BSX19 NPN(Is=20.75f Xti=3 Eg=1.11 Vaf=100 Bf=738K Ise=14.86p Ne=1.709 Ikf=1.366m Nk=.4817 Xtb=1.5 Br=507 Isc=45.28p Nc=1.452 Ikr=2.923 Rc=.8978 Cjc=3.334p Mjc=.2086 Vjc=.5 Fc=.5 Cje=4.118p Mje=.3794 Vje=.5 Tr=4n Tf=280.7p Itf=321.5 Xtf=8.541K Vtf=10 Vceo=40 Icrating=500m mfg=Philips)
