* BSX45-16
* bjt/npn/bsx45-16.mod

.model BSX45-16 NPN(Is=66.19f Xti=3 Eg=1.11 Vaf=100 Bf=600.9 Ise=93.12f Ne=1.31 Ikf=.1347 Xtb=1.2 Br=889.8 Isc=3.42n Nc=1.74 Ikr=12.98 Rc=.5886 Cjc=60.73p Mjc=.3333 Vjc=.5 Fc=.5 Cje=94.85p Mje=.3333 Vje=.5 Tr=10n Tf=1.353n Itf=2.957 Xtf=145.5 Vtf=10)

* Nk: .5522
* Vceo: 80
* Icrating: 1
* mfg: Philips
