* BSX46-16
* bjt/npn/bsx46-16.mod

.model BSX46-16 NPN(Is=66.19f Xti=3 Eg=1.11 Vaf=100 Bf=600.9 Ise=93.12f Ne=1.31 Ikf=.1347 Nk=.5522 Xtb=1.2 Br=889.8 Isc=3.42n Nc=1.74 Ikr=12.98 Rc=.5886 Cjc=48.58p Mjc=.3333 Vjc=.5 Fc=.5 Cje=94.85p Mje=.3333 Vje=.5 Tr=10n Tf=1.361n Itf=2.994 Xtf=146.2 Vtf=10 Vceo=100 Icrating=1 mfg=Philips)
