* BSX46-10
* bjt/npn/bsx46-10.mod

.model BSX46-10 NPN(Is=66.19f Xti=3 Eg=1.11 Vaf=100 Bf=367.1 Ise=752.8f Ne=1.418 Ikf=.1276 Xtb=1.5 Br=967.1 Isc=3.662n Nc=1.779 Ikr=2.449 Rc=.5938 Cjc=48.58p Mjc=.3333 Vjc=.5 Fc=.5 Cje=94.85p Mje=.3333 Vje=.5 Tr=10n Tf=1.372n Itf=1.216 Xtf=16.64 Vtf=10)

* Nk: .5462
* Vceo: 100
* Icrating: 1
* mfg: Philips
