* BSX59
* bjt/npn/bsx59.mod

.model BSX59 NPN(Is=2.148p Xti=3 Eg=1.11 Vaf=100 Bf=5.51MEG Ise=14.31p Ne=1.341 Ikf=1.467 Nk=.8282 Xtb=1.75 Br=2.722 Isc=4.352u Nc=2.902 Ikr=11.54 Rc=.4745 Cjc=19.04p Mjc=.2126 Vjc=.5 Fc=.5 Cje=45.81p Mje=.3426 Vje=.5 Tr=10n Tf=300.6p Itf=3.73 Xtf=40.95 Vtf=10 Vceo=45 Icrating=1 mfg=Philips)
