* BSX60
* bjt/npn/bsx60.mod

.model BSX60 NPN(Is=991.3f Xti=3 Eg=1.11 Vaf=100 Bf=45.02MEG Ise=5.844p Ne=1.342 Ikf=1.513 Xtb=1.35 Br=11.94 Isc=294n Nc=2.206 Ikr=69.6m Rc=.4327 Cjc=19.04p Mjc=.2126 Vjc=.5 Fc=.5 Cje=45.81p Mje=.3426 Vje=.5147 Tr=10n Tf=300.3p Itf=3.307 Xtf=32.58 Vtf=10)

* Nk: .8609
* Vceo: 30
* Icrating: 1
* mfg: Philips
