* BSX61
* bjt/npn/bsx61.mod

.model BSX61 NPN(Is=377.1f Xti=3 Eg=1.11 Vaf=100 Bf=3.39K Ise=1.529p Ne=1.314 Ikf=1.57 Nk=.8664 Xtb=1.5 Br=13.35 Isc=153.1n Nc=2.243 Ikr=2.079 Rc=.4756 Cjc=19.04p Mjc=.2126 Vjc=.5 Fc=.5 Cje=45.81p Mje=.3426 Vje=.5147 Tr=10n Tf=300p Itf=3.281 Xtf=51.95 Vtf=10 Vceo=30 Icrating=1 mfg=Philips)
