* BU208
* bjt/npn/bu208.mod

.model BU208 NPN(Is=70.49f Xti=3 Eg=1.11 Vaf=100 Bf=41.51 Ise=184.7p Ne=1.683 Ikf=1.977 Xtb=1.5 Br=1.065 Isc=990.3f Nc=1.573 Ikr=.947 Rc=35.58m Cjc=303.6p Mjc=.3333 Vjc=.5 Fc=.5 Cje=910.8p Mje=.3333 Vje=.5 Tr=193.4u Tf=22.17n Itf=114.7K Xtf=49.25K Vtf=10)

* Nk: .6679
* Vceo: 1500
* Icrating: 5
* mfg: TFK
