* BU209
* bjt/npn/bu209.mod

.model BU209 NPN(Is=70.49f Xti=3 Eg=1.11 Vaf=100 Bf=364 Ise=5.912p Ne=1.357 Ikf=1.587 Xtb=1.5 Br=2.651 Isc=4.394p Nc=1.301 Ikr=1.707 Rc=39.15m Cjc=303.6p Mjc=.3333 Vjc=.5 Fc=.5 Cje=910.8p Mje=.3333 Vje=.5 Tr=19.61u Tf=22.16n Itf=649.2K Xtf=288.6K Vtf=10)

* Nk: .6998
* Vceo: 1700
* Icrating: 5
* mfg: TFK
