* BU508DR
* bjt/npn/bu508dr.mod

.model BU508DR NPN(Is=85.92p Xti=3 Eg=1.11 Vaf=100 Bf=43.48K Ise=18.19u Ne=2.9 Ikf=1.639 Xtb=1.5 Br=11.84 Isc=5.251n Nc=1.556 Ikr=1.229 Rc=7.009m Cjc=303.6p Mjc=.3333 Vjc=.5 Fc=.5 Cje=910.6p Mje=.3333 Vje=.5 Tr=5.692u Tf=21.03n Itf=9.956 Xtf=231.8 Vtf=10)

* Nk: .8151
* Vceo: 1500
* Icrating: 8
* mfg: TFK
