* BU508
* bjt/npn/bu508.mod

.model BU508 NPN(Is=148.5p Xti=3 Eg=1.11 Vaf=100 Bf=30 Ise=1.355n Ne=1.413 Ikf=8.245 Xtb=1.75 Br=2.131 Isc=529.1p Nc=1.567 Ikr=1.689 Rc=32.64m Cjc=303.6p Mjc=.3333 Vjc=.5 Fc=.5 Cje=910.8p Mje=.3333 Vje=.5 Tr=16.1u Tf=22.02n Itf=183.6 Xtf=18.91K Vtf=10)

* Nk: .8069
* Vceo: 1500
* Icrating: 8
* mfg: TFK
