* BU705
* bjt/npn/bu705.mod

.model BU705 NPN(Is=30.73n Xti=3 Eg=1.11 Vaf=100 Bf=19.28 Ise=246.8n Ne=1.832 Ikf=1.083 Xtb=1.5 Br=2.014 Isc=6.122u Nc=1.683 Ikr=1.552 Rc=40.87m Cjc=194.3p Mjc=.3333 Vjc=.5 Fc=.5 Cje=582p Mje=.3333 Vje=.5 Tr=1u Tf=20.83n Itf=498.9 Xtf=51.13K Vtf=10)

* Nk: .6266
* Vceo: 1500
* Icrating: 2500m
* mfg: TFK
