* BU908
* bjt/npn/bu908.mod

.model BU908 NPN(Is=148.5p Xti=3 Eg=1.11 Vaf=100 Bf=656.7 Ise=11.42n Ne=1.614 Ikf=.542 Nk=.6352 Xtb=1.75 Br=6.932 Isc=463.7p Nc=1.522 Ikr=2.814 Rc=22.73m Cjc=303.6p Mjc=.3333 Vjc=.5 Fc=.5 Cje=910.8p Mje=.3333 Vje=.5 Tr=1u Tf=21.44n Itf=27.47 Xtf=1.214K Vtf=10 Vceo=1500 Icrating=8 mfg=TFK)
