* BUV47A
* bjt/npn/buv47a.mod

.model BUV47A NPN(Is=974.4f Xti=3 Eg=1.11 Vaf=100 Bf=94.74 Ise=2.566p Ne=1.206 Ikf=15.7 Nk=.8401 Xtb=2 Br=20.89 Isc=198.1p Nc=1.474 Ikr=10.96 Rc=35.63m Cjc=364.4p Mjc=.3333 Vjc=.5 Fc=.5 Cje=1.093n Mje=.3333 Vje=.5 Tr=988.4n Tf=21.48n Itf=100.2 Xtf=205.4 Vtf=10 Vceo=400 Icrating=9 mfg=TFK)
