* BUV48T
* bjt/npn/buv48t.mod

.model BUV48T NPN(Is=305.5f Xti=3 Eg=1.11 Vaf=100 Bf=92.39 Ise=609.6f Ne=1.181 Ikf=19.52 Nk=.7617 Xtb=2 Br=19.28 Isc=733.1f Nc=1.49 Ikr=2.357 Rc=27.48m Cjc=607.3p Mjc=.3333 Vjc=.5 Fc=.5 Cje=1.822n Mje=.3333 Vje=.5 Tr=1.934u Tf=28.64n Itf=44.23 Xtf=136.6 Vtf=10 Vceo=800 Icrating=15 mfg=TFK)
