* BUV48
* bjt/npn/buv48.mod

.model BUV48 NPN(Is=743.3f Xti=3 Eg=1.11 Vaf=100 Bf=41.88 Ise=743.3f Ne=1.171 Ikf=10.06 Nk=.5974 Xtb=1.5 Br=7.434 Isc=4.347p Nc=1.57 Ikr=2.795 Rc=31.86m Cjc=607.3p Mjc=.3333 Vjc=.5 Fc=.5 Cje=1.822n Mje=.3333 Vje=.5 Tr=2.944u Tf=30.09n Itf=106 Xtf=353.7 Vtf=10 Vceo=400 Icrating=15 mfg=TFK)
