* BUX47A
* bjt/npn/bux47a.mod

.model BUX47A NPN(Is=305.5f Xti=3 Eg=1.11 Vaf=100 Bf=54.08K Ise=536.1f Ne=1.16 Ikf=13.47 Xtb=1.5 Br=3.59 Isc=852f Nc=1.46 Ikr=4.723 Rc=30.78m Cjc=364.4p Mjc=.3333 Vjc=.5 Fc=.5 Cje=1.093n Mje=.3333 Vje=.5 Tr=3.031u Tf=21.58n Itf=100.7 Xtf=293.8 Vtf=10)

* Nk: .8217
* Vceo: 400
* Icrating: 9
* mfg: TFK
