* BUX48
* bjt/npn/bux48.mod

.model BUX48 NPN(Is=370.6f Xti=3 Eg=1.11 Vaf=100 Bf=34.44 Ise=7.119p Ne=1.351 Ikf=9.232 Nk=.5851 Xtb=1.5 Br=3.89 Isc=674.4f Nc=1.417 Ikr=4.746 Rc=31.6m Cjc=607.3p Mjc=.3333 Vjc=.5 Fc=.5 Cje=1.822n Mje=.3333 Vje=.5 Tr=4.048u Tf=26.69n Itf=1.383K Xtf=202.3K Vtf=10 Vceo=400 Icrating=15 mfg=TFK)
