* BUX47
* bjt/npn/bux47.mod

.model BUX47 NPN(Is=305.5f Xti=3 Eg=1.11 Vaf=100 Bf=54.08K Ise=536.1f Ne=1.16 Ikf=13.47 Xtb=1.5 Br=3.59 Isc=852f Nc=1.46 Ikr=4.723 Rc=30.78m Cjc=364.4p Mjc=.3333 Vjc=.5 Fc=.5 Cje=1.093n Mje=.3333 Vje=.5 Tr=2.682u Tf=21.49n Itf=71.86 Xtf=157.1 Vtf=10)

* Nk: .8217
* Vceo: 400
* Icrating: 9
* mfg: TFK
