* D44H11_HD
* bjt/npn/d44h11_hd.mod

.MODEL D44H11_HD NPN(IS=2.14e-10 NF=1.271265 BF=208.89 RB=2 RBM=0.1 IRB=10 VAF=342 NE=2.7349 ISE=1e-8 IKF=30 BR=4 IKR=1.05 VAR=35 XTF=1800 TF=1.9n ITF=200 VTF=40 CJE=1.4n MJE=0.3092662 VJE=0.4723539b CJC=175.527p MJC=0.383595 VJC=0.479488 TNOM=25)

* NK: 0.9687
* Vceo: 80
* Icrating: 8
* mfg: ON
