* ECG103A
* bjt/npn/ecg103a.mod

.MODEL ECG103A NPN (IS=2.51N NF=1 BF=136 VAF=102 IKF=0.3 ISE=10.7N NE=2 BR=4 NR=1 VAR=40 IKR=0.45 RE=0.103 RB=0.412 RC=41.2M XTB=1.5 CJE=58.7P VJE=1.1 MJE=0.5 CJC=18.9P VJC=0.3 MJC=0.3 TF=63.6N TR=44.2U Vceo=32 ICrating=500m MFG=GERMANIUM-TYPE)
