* ECG103
* bjt/npn/ecg103.mod

.MODEL ECG103 NPN (IS=1.25N NF=1 BF=117 VAF=72 IKF=0.15 ISE=6.22N NE=2 BR=4 NR=1 VAR=80 IKR=0.225 RE=0.206 RB=0.824 RC=82.4M XTB=1.5 CJE=33P VJE=1.1 MJE=0.5 CJC=10.7P VJC=0.3 MJC=0.3 TF=79.5N TR=55.2U Vceo=16 ICrating=250m MFG=GERMANIUM-TYPE)
