* ECG101
* bjt/npn/ecg101.mod

.MODEL ECG101 NPN (IS=1.51N NF=1 BF=52 VAF=80.5 IKF=0.18 ISE=16.8N NE=2 BR=4 NR=1 VAR=80 IKR=0.27 RE=0.172 RB=0.687 RC=68.7M XTB=1.5 CJE=38.2P VJE=1.1 MJE=0.5 CJC=12.3P VJC=0.3 MJC=0.3 TF=31.8N TR=22.1U)

* Vceo: 20
* ICrating: 300m
* MFG: GERMANIUM-TYPE
