* FCX690B
* bjt/npn/fcx690b.mod

.MODEL FCX690B NPN IS=1.5p NF=1 BF=1000 IKF=3 VAF=60 ISE=4E-13 NE=1.37 NR=1 BR=123 IKR=1 VAR=14.5 ISC=4E-13 NC=1.34 RB=0.1 RE=0.045 RC=0.027 CJE=250p VJE=0.68 MJE=0.36 CJC=59p VJC=0.49 MJC=0.36 TF=0.77n TR=18n RCO=0.93 GAMMA=5n QUASIMOD=1 XTB=1.4 TRE1=0.002 TRB1=0.002 TRC1=0.002 Vceo=45 Icrating=2 mfg=Zetex
