* FJL6920
* bjt/npn/fjl6920.mod

.MODEL FJL6920 NPN IS=1.047p NF=0.996 ISE=2.878p NE=1.204 BF=23.7 IKF=7.65 VAF=5.37 NR=1.001 ISC=3.631p NC=1.03 BR=3.23 IKR=4.548 VAR=3.88 RB=94.4 IRB=4.397E-07 RBM=0.082 RE=0.015 RC=0.078 XTB=0.73 EG=1.21 XTI=3 CJE=1.38E-08 VJE=0.583 MJE=0.335 CJC=6.18E-10 VJC=0.284 MJC=0.343 XCJC=0.33 FC=0.5

* Vceo: 800
* Icrating: 20
* mfg: Fairchild
