* FJN13003
* bjt/npn/fjn13003.mod

.MODEL FJN13003 NPN IS=2.512E-14 NF=0.977 ISE=2.754E-11 NE=2 BF=25.07 IKF=1.021 VAF=107.5 NR=0.988 ISC=3.631E-14 NC=1.021 BR=2.885 IKR=0.85 VAR=12.27 RB=78.254 IRB=4.862E-06 RBM=0.465 RE=0.03 RC=2.257 XTB=1.236 EG=1.22 XTI=3 CJE=4.12E-10 VJE=0.697 MJE=0.335 CJC=4.96E-11 VJC=0.39 MJC=0.417 XCJC=0.372 FC=0.5

* Vceo: 400
* Icrating: 1.5
* mfg: Fairchild
