* FJN3303
* bjt/npn/fjn3303.mod

.MODEL FJN3303 NPN IS=7.921E-10 BF=35.689 NF=1 BR=10.8114 NR=1 ISE=1f NE=1.5 ISC=1.00f NC=2 VAF=38 VAR=20 IKF=0.363 IKR=0.398 RB=0.6 RBM=0.1 IRB=2.51189E-5 RE=0.0018 RC=0.6347 CJE=7.879424p VJE=0.6464066 MJE=0.2596434 FC=0.5 CJC=4.291838p VJC=0.5 MJC=0.1964945 TF=5.012n XTF=2 ITF=0.4 VTF=4 TR=2.395n XTB=1.5 EG=1.17 XTI=3 Vceo=400 Icrating=1.5 mfg=Fairchild
