* FJP5200
* bjt/npn/fjp5200.mod

.MODEL FJP5200 npn (IS=1.24896E-10 BF=220.2 NF=1 BR=1.025 NR=1.0 ISE=2.04807E-8 NE=2 ISC=2.01764n NC=1.5 VAF=188.7 VAR=100 IKF=5.2182 IKR=1.39087 RB=22.1 RBM=0.00011 IRB=1.51189E-6 RE=0.0032 RC=0.0183 CJE=1.132025E-10 VJE=0.711 MJE=0.304 FC=0.5 CJC=6.88229E-10 VJC=0.84 MJC=0.25 TF=5.1703E-9 TR=3.342E-7 XTB=1.72 EG=0.78 XTI=3)
