* FJT44
* bjt/npn/fjt44.mod

.MODEL FJT44 NPN IS=4.24E-12 BF=110 NF=1 VAF=68.7 IKF=0.264 ISE=3.184E-10 NE=2 BR=0.00452 NR=1 VAR=100 IKR=1.981E-2 ISC=1p NC=2.0 RB=0.065 RE=0.0012 RC=1.615 FC=0.5 CJE=1.001E-10 VJE=0.9319 MJE=0.3121 CJC=1.799E-11 VJC=0.5529 MJC=0.4051 EG=1.15 XTB=2.15 XTI=3

* mfg: Fairchild
