* FMMT495
* bjt/npn/fmmt495.mod

.MODEL FMMT495 NPN IS=1E-13 NF=1 BF=205 IKF=4 VAF=300 ISE=1E-13 NE=1.5 NR=0.98 BR=24 VAR=45 ISC=1e-13 NC=1.2 RB=.4 RE=.07 RC=.08 RCO=17 GAMMA=9E-8 CJC=15.3p MJC=0.27 VJC=0.35 CJE=114p MJE=0.33 VJE=0.68 TF=0.8n TR=120n XTB=1.4 QUASIMOD=1

* VCEO: 150
* ICRATING: 1
* MFG: ZETEX
