* FMMT497
* bjt/npn/fmmt497.mod

.MODEL FMMT497 NPN IS=5E-14 NF=1 BF=250 IKF=500m VAF=1020 ISE=2.5E-14 NE=1.38 RCO=60 GAMMA=10E-7 NR=1 BR=5 IKR=0 VAR=55 ISC=5p NC=1.31 RB=3 RE=0.05 RC=0.05 QUASIMOD=1 CJC=10.95p MJC=0.265 VJC=0.3905 CJE=125.2p TF=0.6n TR=0.66e-6 XTB=1.4 Vceo=300 Icrating=500m mfg=Zetex
