* FMMT624
* bjt/npn/fmmt624.mod

.MODEL FMMT624 NPN IS=6.855E-13 NF=1.0037 BF=540 IKF=0.95 VAF=231 ISE=2.23E-13 NE=1.4195 NR=1.0024 BR=100 IKR=2 VAR=61 ISC=3p NC=1.2276 RB=0.036 RE=0.065 RC=0.1 CJC=28p MJC=0.4348 VJC=0.4934 CJE=207p TF=0.85n TR=49n

* Vceo: 125
* Icrating: 1
* mfg: Zetex
