* FMMT459
* bjt/npn/fmmt459.mod

.MODEL FMMT459 NPN IS=4E-14 NF=1 BF=130 VAF=1000 ISE=4E-13 NE=1.59 RCO=60 GAMMA=1E-7 NR=1 BR=10 VAR=100 ISC=1e-10 NC=1.6 IKR=30m RB=1 RE=.1 RC=.1 CJC=9p MJC=0.36 VJC=0.51 CJE=99p MJE=0.42 VJE=0.88 TF=2n TR=1.2e-6 XTB=1.5 QUASIMOD=1 Vceo=450 Icrating=150m mfg=Zetex
