* FZT491
* bjt/npn/fzt491.mod

.MODEL FZT491 NPN IS=3.05E-13 NF=1.0034 BF=200 IKF=0.8 VAF=165 ISE=8.0191E-14 NE=1.4126 NR=1.001 BR=50 IKR=0.6 VAR=69 ISC=1.6p NC=1.38 RB=0.065 RE=0.109 RC=0.075 CJC=17.2p MJC=0.3429 VJC=0.4298 CJE=96p TF=0.71n TR=2.5n VCEO=40 ICRATING=1 MFG=ZETEX
