* FZT869
* bjt/npn/fzt869.mod

.MODEL FZT869 NPN IS=1.9p BF=600 IKF=9 VAF=40 ISE=3.752E-13 NE=1.399 NR=1 BR=370 IKR=6 VAR=18 ISC=4.135E-13 NC=1.384 RB=1 RBM=0.01 IRB=1 RE=0.01 RC=0.02 CJC=215p MJC=0.3917 VJC=0.5871 CJE=910.3p MJE=0.3826 VJE=0.7686 TF=1.15n TR=4.01n

* Vceo: 25
* Icrating: 7
* mfg: Zetex
