* KSC1845
* bjt/npn/ksc1845.mod

.MODEL KSC1845 npn IS=1.075431E-13 BF=600.7 NF=1 BR=13.565 NR=1 ISE=1.98107E-13 NE=2 ISC=1.8378E-11 NC=1.5 VAF=82.803 VAR=20.6691 IKF=0.596 IKR=0.0190546 RB=157 RBM=12.092 IRB=1.258925E-6 RE=1.5 RC=180.7 CJE=2.057447E-11 VJE=0.7300286 MJE=0.3619943 FC=0.5 CJC=4.525739p VJC=0.5 MJC=0.3659045 XTB=1.7281 EG=1.1809 XTI=3 TF=3.14E-11 mfg=Fairchild
