* KSC1815
* bjt/npn/ksc1815.mod

.MODEL KSC1815 NPN (IS=2.04174E-14 BF=127.6 NF=1 BR=4.595 NR=1 ISE=1.20226E-14 NE=1.5 ISC=1.31826E-13 NC=1.5 VAF=121.25 VAR=24.03 IKF=1.13 IKR=0.793 RB=34 RBM=17.083 IRB=5.62341u RE=0.38 RC=7.7 CJE=2.041E-11 VJE=0.692258 MJE=0.315545 FC=0.5 CJC=6.29422p VJC=0.410107 MJC=0.247613 XCJC=0.45 TF=1.99n XTB=1.6738 EG=1.1971 XTI=3)

* NK: 0.853
* mfg: Fairchild
