* KSC2316
* bjt/npn/ksc2316.mod

.MODEL KSC2316 NPN IS=1.04713p BF=146 BR=1.475 NR=1.022 ISE=2.75423E-13 NE=1.5 ISC=1.07152p NC=1.5 VAF=26.6 VAR=36.6808 IKF=1.39 IKR=0.0144544 NK=0.8335 RB=10.9 RBM=3.229 IRB=3.98107E-8 RE=0.18 RC=0.116 CJE=2.305506E-10 VJE=0.678627 MJE=0.3428803 FC=0.5 CJC=3.237556E-11 VJC=0.4314661 MJC=0.392328 TF=1.32629n XCJC=0.648954 XTB=1.4595 EG=1.1835 XTI=3
