* KSC2328A
* bjt/npn/ksc2328a.mod

.MODEL KSC2328A NPN IS=2.24306E-13 BF=260.5 NF=1 BR=48.5 NR=0.99 ISE=2.4627p NE=2 ISC=3.85885p NC=1.5 VAF=89.75 VAR=28.93 IKF=5.78598 IKR=0.775 RB=5.92527 RBM=8.03712 IRB=1.01312E-5 RE=0.0581465 RC=0.304881 CJE=2.493517E-10 VJE=0.6680574 MJE=0.3297066 FC=0.5 CJC=5.631294E-11 VJC=0.559565 MJC=0.3668788 XTB=1.3532 EG=1.1791 XTI=3 XCJC=0.7062
