* KSC2682
* bjt/npn/ksc2682.mod

.MODEL KSC2682 NPN(IS=7.010E-13 BF=156.09 NF=1 BR=0.64499 NR=1 ISE=1.2538E-14 NE=1.5 ISC=6.4644E-09 NC=1.5 VAF=600 VAR=100 IKF=0.12325 IKR=0.05102 RB=12.134 RBM=0.034 IRB=3.0e-6 RE=0.108 RC=1.215 CJE=7.10p FC=0.5 CJC=8.20p TF=7.025E-10 TR=1.0E-8 XTB=1.5 EG=0.76 XTF=2 VTF=35 ITF=1 XTI=3 KF=0 AF=1)

* Vceo: 180
* Icrating: 100m
* mfg: Fairchild
