* KSC5200
* bjt/npn/ksc5200.mod

.MODEL KSC5200 NPN IS=4.3031p BF=152.1 BR=6.155 NR=1.028 ISE=1.3924E-11 NE=1.5 ISC=2.7542E-11 NC=1.95 VAF=60 VAR=6.51 IKF=10.8637 IKR=0.1585 RB=2.47 RBM=0.02 IRB=0.08 RE=0.04 RC=0.015 CJE=5.8111n VJE=0.6506 MJE=0.3357 FC=0.5 CJC=6.4394E-10 VJC=0.5 MJC=0.3966 XCJC=0.7624 XTB=1.0445 EG=1.1663 XTI=3
