* KSC5027
* bjt/npn/ksc5027.mod

.MODEL KSC5027 NPN IS=1.62181E-13 NF=0.966 ISE=3.01995p NE=1.5 BF=30.1 IKF=0.88539 VAF=9.00825 NR=0.998 ISC=2.089896p NC=1.164 BR=1.085 IKR=0.0145053 VAR=4.88051 RB=163.0 IRB=1.20226u RBM=0.307 RE=0.008 RC=0.01 XTB=1.1074 EG=1.1571 XTI=3 CJE=2.54n VJE=0.637 MJE=0.335 CJC=2.39E-10 VJC=0.426 MJC=0.428 XCJC=0.4785 FC=0.5 TF=8.6753n XTF=10 VTF=10 ITF=1 TR=1.0000E-8 Vceo=800 Icrating=10 mfg=fairchild
