* KSE44H
* bjt/npn/kse44h.mod

.MODEL KSE44H NPN LEVEL=1 IS=8.512E-13 NF=0.961 ISE=2.754E-11 NE=2.0 BF=226.056 IKF=5.688 VAF=569.967 NR=0.957 ISC=6.868E-14 NC=0.988 BR=25.635 IKR=0.82 VAR=495.578 RB=100.632 IRB=7.346E-05 RBM=3.135 RE=0.001 RC=0.15 XTB=1.268 EG=1.158 XTI=3.0 CJE=1.25E-09 VJE=0.692 MJE=0.34 CJC=2.65E-10 VJC=0.531 MJC=0.426 XCJC=0.47 FC=0.5 Vceo=80 Icrating=10 MFG=Fairchild
