* KSP44
* bjt/npn/ksp44.mod

.MODEL KSP44 NPN IS=2.4446E-13 BF=184.79 VAF=100 IKF=9.6380E-2 ISE=2.8775p BR=0.17129 VAR=100 IKR=2.2351 ISC=6.0845E-10 NC=1.5000 RE=0.1 RB=4.7095 RC=2.7922 CJE=1.0100E-10 CJC=1.9010E-11 VJC=0.66207 MJC=0.40238 TF=1.1000E-8 XTF=10 VTF=10 ITF=1 TR=3.86493E-5 FC=0.5 XTI=3 EG=1.11

* Vceo: 500
* Icrating: 0.3
* mfg: Fairchild
