* KT306B
* bjt/npn/kt306b.mod

.MODEL KT306B NPN(BF=100 IS=2F CJC=4.2P CJE=10.2P RE=1.6 RC=0.52U TF=400P rb=200 xcjc=0.1 Tr=10n mfg=USSR)
