* KT317
* bjt/npn/kt317.mod

.MODEL KT317 NPN(Is=233f Bf=200 Rb=200 Rc=20 Cje=1.03pF Cjc=4.1pF Tf=400p xcjc=0.1)

* mfg: USSR
