* KT3101A
* bjt/npn/kt3101a.mod

.model KT3101a NPN(Is=25.63f Xti=3 Eg=1.11 Vaf=56 Bf=245.8 Ne=1.254 Ise=27.93f Ikf=54.66m Xtb=1.5 Var=20 Br=1.883 Nc=2 Isc=108.6f Ikr=57.63m Rb=28 Rbm=8 Irb=.72m Rc=3.45 Cjc=1.166p Mjc=.2974 Vjc=.75 Fc=.5 Xcjc=0.5 Cje=1.354p Mje=.3137 Vje=.65 Tr=463.8p Tf=22.39p Itf=.367 Vtf=12 Xtf=2 mfg=USSR)
