* KT315G
* bjt/npn/kt315g.mod

.model kt315g npn bf=250 is=100f vaf=60 ikf=50m xtb=1.5 br=2 rc=5 rb=200 rbm=20 irb=.3m cjc=15p vjc=.75 mjc=.33 fc=.5 cje=20p vje=.75 mje=.33 tr=250n tf=.4n itf=40m vtf=10 xtf=2 xti=3 eg=1.11 xcjc=0.15 ne=1.8 ise=20p nc=2 isc=600p BVbe=7 IBVbe=20u BVcbo=120

* Vceo: 35
* Icrating: 100m
* mfg: USSR
