* KT3153A9
* bjt/npn/kt3153a9.mod

.model kt3153a9 npn is=20f eg=1.11 vaf=80 bf=250 ikf=1 br=5 var=12 rb=500 rbm=80 irb=50u rc=1 cjc=10p mjc=.56 vjc=.7 fc=.5 cje=15p mje=.64 vje=.7 tf=.4n tr=400n xcjc=0.3 xtb=1.5 xti=3 itf=80m vtf=10 xtf=.5 ne=1.4 ise=20f nc=2 isc=4.4p

* Vceo: 50
* Icrating: 400m
* mfg: USSR
