* KT3102E
* bjt/npn/kt3102e.mod

.model kt3102e npn bf=5000 br=5 is=.2p tf=.4n cjc=12p cje=12p vaf=100 tr=45n rc=.5 rb=1.5k rbm=80 irb=10u ikf=50m xcjc=0.3 kf=5f eg=1.11 ne=1.35 ise=0.1p nc=2 isc=1p Vceo=20 Icrating=100m mfg=USSR
