* KT312V
* bjt/npn/kt312v.mod

.model kt312v npn is=6.734f bf=280 vaf=60 ikf=30m ise=6.734f ne=1.205 br=.81 rb=200 rc=1 cje=4.493p vje=.75 mje=.2593 tf=301.2p xtf=2 vtf=5 itf=.4 cjc=3.116p vjc=.75 mjc=.3 tr=244.2n xtb=1.5 eg=1.11 xti=3 fc=.5

* Vceo: 20
* Icrating: 30m
* mfg: USSR
