* KT316G
* bjt/npn/kt316g.mod

.model KT316g NPN(Is=2.753f Xti=3 Eg=1.11 Vaf=96 Bf=86.5 Ne=2.496 Ise=12.8p Ikf=97.23m Xtb=1.5 Var=55 Br=.6577 Nc=2 Isc=15.5p Ikr=.12 Rb=70.6 Rc=8.35 Cjc=4.089p Vjc=.65 Mjc=.33 Fc=.5 Cje=1.16p Vje=.69 Mje=.33 Tr=27.84n Tf=78.97p Itf=.151 Vtf=25 Xtf=2)

* mfg: USSR
