* KT316V
* bjt/npn/kt316v.mod

.model KT316v NPN(Is=3.49f Xti=3 Eg=1.11 Vaf=102 Bf=74.97 Ne=1.483 Ise=44.72f Ikf=.1322 Xtb=1.5 Var=55 Br=.2866 Nc=2 Isc=447f Ikr=.254 Rb=66.7 Rc=7.33 Cjc=3.934p Vjc=.65 Mjc=.33 Fc=.5 Cje=1.16p Vje=.69 Mje=.33 Tr=65.92n Tf=94.42p Itf=.15 Vtf=15 Xtf=2 mfg=USSR)
