* KT317_
* bjt/npn/kt317_.mod

.model KT317_ NPN(Is=1.e-13 Bf=200 Br=5 Vaf=74 Var=30 Rb=230 Rc=15 Re=2 Cje=1pF Cjc=3pF Tf=12n Tr=70n mfg=USSR)
