* KT3117A
* bjt/npn/kt3117a.mod

.model KT3117a NPN(Is=61.27f Xti=3 Eg=1.11 Vaf=95.7 Bf=182 Ne=2.744 Ise=9.293n Ikf=2.622 Xtb=1.5 Var=65 Br=1.894 Nc=2 Isc=1.2n Ikr=2.65 Rb=30.7 Rc=.75 Cjc=28.58p Mjc=.4701 Vjc=.75 Fc=.5 Cje=68.82p Mje=.1985 Vje=.75 Tr=32.04n Tf=261.9p Itf=2.5 Vtf=40 Xtf=1.5)

* mfg: USSR
