* KT325B
* bjt/npn/kt325b.mod

.model KT325b NPN(Is=19.86f Xti=3 Eg=1.11 Vaf=87 Bf=165.9 Ise=1.151p Ne=1.612 Ikf=72.41m Nk=.5 Xtb=1.5 Br=1.78 Isc=.1p Nc=1.744 Ikr=.6068 Rb=27 Rc=.2997 Cjc=3.155p Mjc=.333 Vjc=.75 Fc=.5 Cje=3.42p Mje=.333 Vje=.75 Tr=11.53n Tf=138.3p Itf=.3 Xtf=1.7 Vtf=25 mfg=USSR)
