* KT325A
* bjt/npn/kt325a.mod

.model KT325a NPN(Is=19.86f Xti=3 Eg=1.11 Vaf=87 Bf=84.21 Ise=336.8f Ne=1.424 Ikf=76.88m Nk=.5 Xtb=1.5 Br=1.78 Isc=.1p Nc=1.744 Ikr=.6068 Rb=25 Rc=.2997 Cjc=3.549p Mjc=.333 Vjc=.75 Fc=.5 Cje=3.42p Mje=.333 Vje=.75 Tr=16.38n Tf=138.3p Itf=.3 Xtf=1.7 Vtf=25 mfg=USSR)
