* KT342A
* bjt/npn/kt342a.mod

.model KT342a NPN(Is=5.997f Xti=3 Eg=1.11 Vaf=106.8 Bf=394.1 Ise=38.23f Ne=1.421 Ikf=.1685 Xtb=1.5 Br=1 Isc=23.96f Nc=1.34 Ikr=2.077 Rb=19 Rc=.9855 Cjc=10.44p Mjc=.3906 Vjc=.75 Fc=.5 Cje=14.23p Mje=.33 Vje=.75 Tr=78.22n Tf=307.5p Itf=.52 Xtf=2 Vtf=50)

* Nk: .4727
* mfg: USSR
