* KT342B
* bjt/npn/kt342b.mod

.model KT342b NPN(Is=5.997f Xti=3 Eg=1.11 Vaf=95.7 Bf=739.7 Ise=50.36f Ne=1.496 Ikf=.1479 Xtb=1.5 Br=1 Isc=23.96f Nc=1.34 Ikr=2.077 Rb=23 Rc=.9855 Cjc=10.44p Mjc=.3906 Vjc=.75 Fc=.5 Cje=14.23p Mje=.33 Vje=.75 Tr=78.22n Tf=307.5p Itf=.52 Xtf=2 Vtf=50)

* Nk: .5
* mfg: USSR
