* KT342V
* bjt/npn/kt342v.mod

.model kt342v npn is=20f xti=3 eg=1.11 vaf=90 bf=1400 xtb=1.5 br=1 rb=1.5k rbm=10 rc=1 irb=50u cjc=10p mjc=.39 vjc=.75 fc=.5 cje=14p xcjc=0.1 tf=.4n tr=300n ne=1.33 ise=10f nc=1.34 isc=24f

* Vceo: 10
* Icrating: 50m
* mfg: USSR
