* KT355A
* bjt/npn/kt355a.mod

.model KT355a NPN(Is=14.02f Xti=3 Eg=1.11 Vaf=82.35 Bf=172.2 Ne=2.211 Ise=9.573p Ikf=.2809 Xtb=1.5 Var=45 Br=.8636 Nc=2 Isc=1.12p Ikr=.253 Rb=41.6 Rc=3.55 Cjc=2.742p Vjc=.75 Mjc=.33 Fc=.5 Cje=2.635p Vje=.69 Mje=.33 Tr=76.29n Tf=65.28p Itf=.532 Vtf=15 Xtf=2 mfg=USSR)
