* KT368B
* bjt/npn/kt368b.mod

.model KT368b NPN(Is=8.675f xcjc=0.1 Xti=3 Eg=1.11 Vaf=108 Bf=325.3 Ne=1.377 Ise=9.128f Ikf=.3608 Xtb=1.5 Var=56 Br=1.45 Nc=2 Isc=16.3f Ikr=.125 Rb=60 Rc=2.445 Cjc=2.35p Vjc=.75 Mjc=.33 Fc=.5 Cje=2.786p Vje=.69 Mje=.37 Tr=2.147n Tf=84.62p Itf=.15 Vtf=25 Xtf=2 mfg=USSR)
