* KT371A
* bjt/npn/kt371a.mod

.model KT371a NPN(Is=1.378f Xti=3 Eg=1.11 Vaf=68.25 Bf=236 Ne=1.479 Ise=43.8f Ikf=.1777 Xtb=1.5 Var=45 Br=3.414 Nc=2 Isc=55f Ikr=35m Rb=44.1 Rc=2.8 Cjc=1.932p Vjc=.75 Mjc=.33 Fc=.5 Cje=1.747p Vje=.69 Mje=.33 Tr=13.65n Tf=43.78p Itf=.35 Vtf=10 Xtf=2 mfg=USSR)
