* KT373A
* bjt/npn/kt373a.mod

.model KT373A NPN(Is=487.2f Xti=3 Eg=1.11 Vaf=100 Bf=308.6 Ise=895.3f Ne=1.355 Ikf=6.43 Xtb=1.5 Var=100 Br=10.88 Isc=996.3f Nc=1.276 Ikr=.1615 Rc=48m Cjc=36.97p Mjc=.3487 Vjc=.3907 Fc=.5 Cje=5p Mje=.3333 Vje=.75 Tr=10n Tf=1n Itf=1 Xtf=0 Vtf=10)

* Nk: 1.576
* mfg: USSR
