* KT375A
* bjt/npn/kt375a.mod

.model KT375a NPN(IS=6.734f BF=335.2 BR=0.8073 ISE=6.734f ISC=0 IKF=60.26m IKR=0 NE=1.208 NC=2 VAF=74.03 RC=1 RB=10 TF=300.8p TR=243.9n XTF=2 VTF=4 ITF=0.4 CJE=4.493p VJE=0.75 MJE=0.2593 CJC=3.638p VJC=0.75 MJC=0.3085 FC=0.5 EG=1.11 XTB=1.5 XTI=3 mfg=USSR)
