* KT373B
* bjt/npn/kt373b.mod

.model KT373b NPN(IS=12.03f BF=427.8 BR=4.379 ISE=2.953p ISC=0 IKF=0.1072 IKR=0 NE=1.971 NC=2 VAF=37.37 RC=1 RB=10 TF=385.4p TR=701.7p XTF=8 VTF=3 ITF=0.17 CJE=8.307P VJE=0.75 MJE=0.384 CJC=5.777p VJC=0.75 MJC=0.3199 FC=0.5 EG=1.11 XTB=1.5 XTI=3)

* mfg: USSR
