* KT373G
* bjt/npn/kt373g.mod

.model KT373g NPN(IS=61.01f BF=121.37 BR=0.2359 ISE=122.2p ISC=0 IKF=97.79m IKR=0 NE=1.305 NC=2 VAF=57.37 RC=2.14 RB=10 TF=316.3p TR=1.633u XTF=8 VTF=5 ITF=0.2 CJE=5.928P VJE=0.75 MJE=0.3333 CJC=6.072p VJC=0.75 MJC=0.3333 FC=0.5 EG=1.11 XTB=1.5 XTI=3)

* mfg: USSR
