* KT399A
* bjt/npn/kt399a.mod

.model KT399A NPN(IS=69.28e-18 BF=288 BR=1.219 ISE=69.28e-18 IKF=21.59m NE=1.167 NC=2 VAF=100 RC=4 RB=10 TF=115.7p TR=1.607n XTF=30 VTF=10 ITF=0.27 CJE=939.3f VJE=0.75 MJE=0.3453 CJC=891.1f VJC=0.75 MJC=0.3017 FC=0.5 EG=1.11 XTB=1.5 XTI=3)

* mfg: USSR
