* KT503V
* bjt/npn/kt503v.mod

.model KT503v NPN(Is=6.843f Xti=3 Eg=1.11 Vaf=114 Bf=130.7 Ise=56.77f Ne=1.358 Ikf=.2659 Nk=.4211 Xtb=1.5 Br=1.2 Isc=26.4p Nc=2.088 Ikr=1.637 Rb=6 Rc=1.538 Cjc=23.66p Mjc=.33 Vjc=.75 Fc=.5 Cje=30.84p Mje=.33 Vje=.75 Tr=648.9n Tf=15.39n Itf=1 Xtf=2 Vtf=30 mfg=USSR)
