* KT503A
* bjt/npn/kt503a.mod

.model KT503a NPN(Is=6.843f Xti=3 Eg=1.11 Vaf=60 Bf=104.8 Ise=70.91f Ne=1.372 Ikf=.4526 Xtb=1.5 Br=1.1 Isc=26.4p Nc=2.088 Ikr=1.637 Rb=12 Rc=1.538 Cjc=23.66p Mjc=.33 Vjc=.75 Fc=.5 Cje=30.84p Mje=.33 Vje=.75 Tr=648.9n Tf=10.09n Itf=1 Xtf=2 Vtf=10)

* Nk: .5243
* mfg: USSR
