* KT503D
* bjt/npn/kt503d.mod

.model KT503d NPN(Is=6.843f Xti=3 Eg=1.11 Vaf=129 Bf=106.6 Ise=66.48f Ne=1.384 Ikf=.8419 Xtb=1.5 Br=1.2 Isc=26.4p Nc=2.088 Ikr=1.637 Rb=6 Rc=1.538 Cjc=23.66p Mjc=.33 Vjc=.75 Fc=.5 Cje=30.84p Mje=.33 Vje=.75 Tr=648.9n Tf=12.74n Itf=1 Xtf=2 Vtf=30)

* Nk: .6328
* mfg: USSR
