* KT504A
* bjt/npn/kt504a.mod

.model KT504a NPN(Is=26.98f Xti=3 Eg=1.11 Vaf=138 Bf=209.7 Ise=498.3f Ne=1.412 Ikf=1.14 Nk=.5971 Xtb=1.5 Br=1.93 Isc=275.6f Nc=1.445 Ikr=81.42m Rb=6.7 Rc=.5483 Cjc=38.87p Mjc=.35 Vjc=.75 Fc=.5 Cje=592.8p Mje=.33 Vje=.65 Tr=810.9n Tf=1.867n Itf=10.8 Xtf=2 Vtf=40 mfg=USSR)
