* KT503G
* bjt/npn/kt503g.mod

.model KT503g NPN(Is=10.07f Xti=3 Eg=1.11 Vaf=145 Bf=166.4 Ise=100.2f Ne=1.452 Ikf=.6117 Nk=.4667 Xtb=1.5 Br=1.7 Isc=47.49f Nc=1.715 Ikr=.7018 Rb=6 Rc=1.208 Cjc=23.66p Mjc=.33 Vjc=.75 Fc=.5 Cje=30.84p Mje=.33 Vje=.75 Tr=390.4n Tf=10.09n Itf=1 Xtf=2 Vtf=40 mfg=USSR)
