* KT605A
* bjt/npn/kt605a.mod

.model KT605a NPN(Is=19.56f Xti=3 Eg=1.11 Vaf=110 Bf=109.6 Ne=1.427 Ise=209f Ikf=1.478 Xtb=1.5 Br=.113 Nc=2 Isc=1.265p Ikr=.34 Rc=6.14 Rb=23 Cjc=11.42p Mjc=.3159 Vjc=.75 Fc=.5 Cje=31.04p Mje=.2732 Vje=.75 Tr=1.238u Tf=814.9p Itf=1.27 Vtf=80 Xtf=2)

* mfg: USSR
