* KT603B
* bjt/npn/kt603b.mod

.model KT603b NPN(Is=91.85f Xti=3 Eg=1.11 Vaf=80 Bf=140.3 Ne=1.299 Ise=410f Ikf=1.033 Xtb=1.5 Br=1.113 Nc=2 Isc=1.265p Ikr=.41 Rc=1.17 Rb=12 Cjc=5.646p Mjc=.3443 Vjc=.75 Fc=.5 Cje=28.89p Mje=.283 Vje=.75 Tr=255.1n Tf=389.2p Itf=2.04 Vtf=60 Xtf=2)

* mfg: USSR
