* KT602G
* bjt/npn/kt602g.mod

.model KT602g NPN(IS=14.34f BF=173.4 BR=6.458 ISE=14.34f ISC=10n IKF=0.2689 IKR=0 NE=1.272 NC=2 VAF=74.03 RC=1 RB=10 TF=409.7p TR=48.39n XTF=3 VTF=1.7 ITF=0.6 CJE=22.01p VJE=0.75 MJE=0.377 CJC=9.393p VJC=0.75 MJC=0.3416 FC=0.5 EG=1.11 XTB=1.5 XTI=3 mfg=USSR)
