* KT608A
* bjt/npn/kt608a.mod

.model KT608a NPN(Is=1p Vaf=60 Var=8 Bf=80 Ikf=0.4 Nc=4 Ne=4 Rb=3 Re=0.5 Ise=10u Isc=10u Cjc=12p Cje=30p Tr=50n Tf=0.6n mfg=USSR)
