* KT6113G
* bjt/npn/kt6113g.mod

.MODEL KT6113G NPN (Is=9f xcjc=0.1 Xti=3 Vaf=75 Bf=102 Ne=2 Ise=2.4p Ikf=250m Xtb=1.5 Br=0.3 Nc=2 Isc=2.4p Ikr=10m Rc=3.5 Cjc=1.8p Mjc=.15 Vjc=.8 Fc=.5 Cje=1.5p Mje=0.5 Vje=.8 Tr=2n Tf=80p Itf=13m Vtf=1.7 Xtf=3 Rb=60 Vceo=15 Icrating=50m mfg=INTEGRAL)
