* KT638A
* bjt/npn/kt638a.mod

.model KT638a NPN(Is=49.43f Xti=3 Eg=1.11 Vaf=120 Bf=156.7 Ise=321.8f Ne=1.45 Ikf=.2839 Nk=.5 Xtb=1.5 Br=.58 Isc=5.44p Nc=2.28 Ikr=.142 Rb=45.2 Rc=4.75 Cjc=12.1p Mjc=.33 Vjc=.75 Fc=.5 Cje=32.14p Mje=.33 Vje=.75 Tr=1.725u Tf=501.7p Itf=24.56m Xtf=95.24m Vtf=40 mfg=USSR)
