* KT630A
* bjt/npn/kt630a.mod

.model KT630A NPN (Is=442.7e-18 Xti=3 Eg=1.11 Vaf=120 Bf=80 Ne=1.5 Ise=1e-7 Ikf=.8 Xtb=1.5 Br=1 Nc=2 Isc=1E-6 Ikr=.7 Rc=0.7 rb=10 Cjc=25p Vjc=.75 Mjc=.333 Fc=.5 Cje=65p Vje=.75 Mje=.333 Tr=50n Tf=2n Itf=.75 Vtf=120 Xtf=1.2)

* Vceo: 120
* Icrating: 1
* mfg: USSR
