* KT646A
* bjt/npn/kt646a.mod

.model KT646A NPN(IS=17.03f BF=200 BR=4.6 ISE=153.3f ISC=1.35p IKF=0.4095 IKR=0.21 NE=1.368 NC=2 VAF=123 VAR=75 RC=0.35 RB=15 TF=1.8n TR=50n XTF=1 VTF=60 ITF=0.65 CJE=34.4p VJE=0.69 MJE=0.33 CJC=21.24p VJC=0.69 MJC=0.33 FC=0.5 EG=1.11 XTB=1.5 XTI=3)

* Vceo: 60
* Icrating: 1
* mfg: USSR
