* KT653A
* bjt/npn/kt653a.mod

.model KT653a NPN(Is=44.97f Xti=3 Eg=1.11 Vaf=113.3 Bf=130.5 Ise=466.8f Ne=1.384 Ikf=1.511 Xtb=1.5 Br=1.93 Isc=640.4f Nc=1.441 Ikr=81.42m Rb=12 Rc=.6239 Cjc=17p Mjc=.33 Vjc=.75 Fc=.5 Cje=41.5p Mje=.33 Vje=.75 Tr=393.8n Tf=805.3p Itf=1 Xtf=2 Vtf=60)

* Nk: .8169
* mfg: USSR
