* KT653B
* bjt/npn/kt653b.mod

.model KT653b NPN(Is=44.97f Xti=3 Eg=1.11 Vaf=79.03 Bf=179.9 Ise=228.5f Ne=1.363 Ikf=.9461 Xtb=1.5 Br=1.93 Isc=640.4f Nc=1.441 Ikr=81.42m Rb=25 Rc=.6239 Cjc=17p Mjc=.33 Vjc=.75 Fc=.5 Cje=41.5p Mje=.33 Vje=.75 Tr=451.8n Tf=715.8p Itf=3 Xtf=2 Vtf=50)

* Nk: .7366
* mfg: USSR
