* KT665A9
* bjt/npn/kt665a9.mod

.MODEL KT665A9 NPN (IS=7.0489e-14 BF=196.64 BR=4.5875 RB=0 RE=0 RC=0.15103 CJE=2.3944e-10 CJC=5e-11 VJE=0.35035 VJC=0.65363 TF=9.9605e-10 TR=1e-08 MJE=0.34922 MJC=0.41826 VA=100 ISE=7.134e-14 IKF=4.0903 NE=1.2257 NF=1 NR=1 VAR=100 IKR=0.38749 ISC=1.3037e-09 NC=2.4443 IRB=1e+30 RBM=0 XTF=10 VTF=10 ITF=1 VJS=0.75 MJS=0 XTB=0 EG=1.11 XTI=3 FC=0.5)

* mfg: USSR
