* KT809A
* bjt/npn/kt809a.mod

.model KT809a NPN(Is=130.1f Xti=3 Eg=1.11 Vaf=100 Bf=82.09 Ise=217.3p Ne=1.719 Ikf=5.346 Xtb=1.5 Br=2.813 Isc=2.51p Nc=1.493 Ikr=1.238 Rc=.1166 Rb=1.5 Cjc=394.4p Mjc=.3333 Vjc=.75 Fc=.5 Cje=1.737n Mje=.33 Vje=.75 Tr=847.7n Tf=24.96n Itf=23.15 Xtf=5 Vtf=60)

* Nk: .4488
* mfg: USSR
