* KT803
* bjt/npn/kt803.mod

.MODEL KT803 NPN(IS=10.0013F BF=188.54 NF=959.516M VAF=100 IKF=999.777M ISE=939.177F NE=1.40628 BR=94.1769M IKR=999.307M ISC=77.4497P NC=2 RC=324.659M CJE=2P MJE=500M CJC=1.5185N VJC=750.012M MJC=501.024M FC=500M TF=3.59562N XTF=508.073M VTF=9.99912 ITF=10.0488N TR=10N EG=1.11 mfg=USSR)
