* KT801B
* bjt/npn/kt801b.mod

.MODEL KT801B NPN IS=190.858F BF=60.6285 VAF=112.9 IKF=970.016m ISE=36.S238N NE=2.76223 BR=2 IKR=9.90801 ISC=0.000104233F NC=2 RE=201.343m RC=26.9255m CJE=430p Cjc=105p mjc=0.4 mje=0.5 Tf=5n tr=500n

* mfg: USSR
