* KT808
* bjt/npn/kt808.mod

.MODEL KT808 NPN (IS=10F BF=200 NF=959.516M VAF=100 IKF=1000M ISE=1.04781P NE=1.32819 BR=87.768M IKR=1.74259 ISC=134.067F NC=2 RC=304.835M CJE=2P MJE=500M CJC=1.89734N VJC=750.004M MJC=500.866M FC=500M TF=11.3898N XTF=500.953M VTF=9.99941 ITF=15.4469M TR=454.404U EG=1.11)

* mfg: USSR
