* KT815A
* bjt/npn/kt815a.mod

.model KT815a NPN(Is=10.2f Xti=3 Eg=1.11 Vaf=70 Bf=191.7 Ise=349.5f Ne=1.422 Ikf=.4139 Xtb=1.5 Br=1.683 Isc=706.1f Nc=1.473 Ikr=.5592 Rc=.203 Rb=5 Cjc=88.73p Mjc=.3333 Vjc=.75 Fc=.5 Cje=71.14p Mje=.3333 Vje=.75 Tr=2.046u Tf=24.32n Itf=1 Xtf=2 Vtf=10)

* Nk: .624
* Vceo: 40
* Icrating: 1.5
* mfg: USSR
