* KT8101
* bjt/npn/kt8101.mod

.model kt8101 npn is=29.4733p bf=1.28124k nf=1.00448 vaf=90.7 ikf=5.4099 ise=3.03808p ne=1.14574 br=256.79m ikr=60.2683m isc=3.36943u re=65.1304m rc=10.2639m cje=5p mje=500m tf=8.51949n xtf=500.012m vtf=10 itf=38.2957m cjc=5p mjc=500m tr=10n

* mfg: INTEGRAL
