* KT815V
* bjt/npn/kt815v.mod

.model KT815v NPN(Is=10.2f Xti=3 Eg=1.11 Vaf=87 Bf=115.3 Ise=573.7f Ne=1.453 Ikf=.3983 Nk=.5 Xtb=1.5 Br=1.576 Isc=231.6f Nc=1.44 Ikr=.3633 Rc=.2936 Rb=5 Cjc=88.73p Mjc=.3333 Vjc=.75 Fc=.5 Cje=71.14p Mje=.3333 Vje=.75 Tr=2.046u Tf=24.32n Itf=1 Xtf=2 Vtf=10 Vceo=70 Icrating=1.5 mfg=USSR)
