* KT817V
* bjt/npn/kt817v.mod

.model kt817v NPN(Is=66.19f Xti=3 Eg=1.11 Vaf=105 Bf=94.53 Ise=728.1f Ne=1.432 Ikf=.4772 Xtb=1.5 Br=1.663 Isc=1.043p Nc=1.476 Ikr=.9431 Rc=.1435 Cjc=98.3p Mjc=.3155 Vjc=.75 Fc=.5 Cje=108.6p Mje=.3333 Vje=.75 Tr=137.2n Tf=26.48n Itf=1 Xtf=2 Vtf=10)

* Nk: .4907
* Vceo: 60
* Icrating: 3
* mfg: USSR
