* KT812B
* bjt/npn/kt812b.mod

.model KT812b NPN(Is=43.44f Xti=3 Eg=1.11 Vaf=153 Bf=154.7 Ise=10.38p Ne=1.51 Ikf=26.48 Xtb=1.5 Br=1 Isc=1.18p Nc=1.576 Ikr=.32 Rc=.2787 Rb=.2 Cjc=352.7p Mjc=.33 Vjc=.75 Fc=.5 Cje=800p Mje=.33 Vje=.75 Tr=647.1n Tf=11.34n Itf=1.5 Xtf=2 Vtf=80)

* Nk: .8517
* mfg: USSR
