* KT817B
* bjt/npn/kt817b.mod

.model kt817b NPN(Is=66.19f Xti=3 Eg=1.11 Vaf=105 Bf=132.5 Ise=564.1f Ne=1.413 Ikf=.1501 Xtb=1.5 Br=1.663 Isc=1.043p Nc=1.476 Ikr=.9431 Rc=.1435 Cjc=98.3p Mjc=.3155 Vjc=.75 Fc=.5 Cje=108.6p Mje=.3333 Vje=.75 Tr=137.2n Tf=26.48n Itf=1 Xtf=2 Vtf=10)

* Nk: .4187
* Vceo: 45
* Icrating: 3
* mfg: USSR
