* KT817A
* bjt/npn/kt817a.mod

.model kt817a NPN(Is=66.19f Xti=3 Eg=1.11 Vaf=100 Bf=287.1 Ise=330.5f Ne=1.426 Ikf=.603 Nk=.5972 Xtb=1.5 Br=1.216 Isc=1.984p Nc=1.514 Ikr=.7536 Rc=.1198 Cjc=116.7p Mjc=.3155 Vjc=.75 Fc=.5 Cje=108.6p Mje=.3333 Vje=.75 Tr=137.2n Tf=26.48n Itf=1 Xtf=2 Vtf=10 Vceo=40 Icrating=3 mfg=USSR)
