* KT819G
* bjt/npn/kt819g.mod

.MODEL KT819G NPN (IS=5.5357p BF=451.87 VAF=100 IKF=.67023 ISE=1.9839n NE=1.8519 BR=499.50 VAR=100 IKR=19.980 ISC=256.11n NC=2.1525 NK=.5187 RB=.41233 RC=83.722m CJE=2.3713n MJE=.33333 CJC=1.1831n MJC=.33333 TF=8.5594n XTF=10 VTF=10 ITF=1 TR=95.284n Vceo=100 Icrating=10000 mfg=USSR)
