* KT819A
* bjt/npn/kt819a.mod

.model KT819a NPN(Is=114.5f Xti=3 Eg=1.11 Vaf=80 Bf=176.5 Ise=1.231p Ne=1.371 Ikf=3.193 Nk=.5458 Xtb=1.5 Br=1 Isc=1.185p Nc=1.533 Ikr=.4086 Rc=36.34m Rb=2 Cjc=1.183n Mjc=.3333 Vjc=.75 Fc=.5 Cje=1.635n Mje=.3333 Vje=.75 Tr=2.955u Tf=14.69n Itf=1.387 Xtf=.4251 Vtf=10 Vceo=40 Icrating=10 mfg=USSR)
