* KT819B
* bjt/npn/kt819b.mod

.model KT819b NPN(Is=114.5f Xti=3 Eg=1.11 Vaf=90 Bf=161 Ise=1.416p Ne=1.341 Ikf=4.184 Nk=.649 Xtb=1.5 Br=3.8 Isc=1.266p Nc=1.51 Ikr=1.1 Rc=60m Rb=2 Cjc=1.183n Mjc=.3333 Vjc=.75 Fc=.5 Cje=1.635n Mje=.3333 Vje=.75 Tr=1.381u Tf=14.69n Itf=1.387 Xtf=.4251 Vtf=10 Vceo=50 Icrating=10 mfg=USSR)
