* KT831V
* bjt/npn/kt831v.mod

.model KT831v NPN(Is=56.47f Xti=3 Eg=1.11 Vaf=80 Bf=255.7 Ne=2.918 Ise=8.105n Ikf=6.154 Xtb=1.5 Var=60 Br=.6713 Nc=2 Isc=2p Ikr=2.04 Rb=8.5 Rc=.27 Cjc=55.64p Mjc=.33 Vjc=.75 Fc=.5 Cje=181.5p Mje=.33 Vje=.65 Tr=1.223u Tf=5.055n Itf=4.09 Vtf=45 Xtf=2)

* mfg: USSR
