* KT838A
* bjt/npn/kt838a.mod

.model KT838a NPN(Is=74.22f Xti=3 Eg=1.11 Vaf=153 Bf=123.5 Ne=1.754 Ise=172p Ikf=19.27 Xtb=1.5 Br=136.9m Nc=2 Isc=1.142p Ikr=8.53 Rc=.21 Rb=3.4 Cjc=352.7p Mjc=.33 Vjc=.75 Fc=.5 Cje=800p Mje=.3395 Vje=.75 Xcjc=0.5 Tr=647.1n Tf=11.34n Itf=.45 Vtf=80 Xtf=2)

* mfg: USSR
