* KT831B
* bjt/npn/kt831b.mod

.model KT831b NPN(Is=56.47f Xti=3 Eg=1.11 Vaf=83 Bf=236.8 Ne=2.918 Ise=8.105n Ikf=6.154 Xtb=1.5 Var=60 Br=.6713 Nc=2 Isc=2p Ikr=2.04 Rb=8.5 Rc=.27 Cjc=78.34p Mjc=.33 Vjc=.75 Fc=.5 Cje=241.4p Mje=.33 Vje=.65 Tr=2.353u Tf=5.055n Itf=4.09 Vtf=45 Xtf=2)

* mfg: USSR
