* KT840A
* bjt/npn/kt840a.mod

.MODEL KT840A NPN (IS=1.1201p BF=109.51 VAF=100 IKF=2.5530 ISE=81.673p NE=1.5087 BR=499.50 VAR=100 IKR=19.981 ISC=335.58p NC=2.9969 RB=48.193m RC=.11342 CJE=3.3426n MJE=.20906 CJC=701.93p VJC=.35 MJC=.42087 TF=2.7063n XTF=10 VTF=10 ITF=1 TR=162.42n)

* NK: .66844
* Vceo: 400
* Icrating: 6A
* mfg: USSR
