* KT841A
* bjt/npn/kt841a.mod

.model KT841a NPN(Is=114.2f Xti=3 Eg=1.11 Vaf=153 Bf=163.5 Ne=1.547 Ise=1.72p Ikf=7.27 Xtb=1.5 Br=1.36 Nc=2 Isc=1.142p Ikr=1.53 Rc=.21 Rb=1 Cjc=352.7p Mjc=.33 Vjc=.75 Fc=.5 Cje=800p Mje=.3395 Vje=.75 Xcjc=0.5 Tr=647.1n Tf=11.34n Itf=45 Vtf=80 Xtf=2)

* mfg: USSR
