* KT850
* bjt/npn/kt850.mod

.model kt850 npn is=660.244f bf=1.12908k nf=1.09821 vaf=53.2 ikf=861.559m ise=3.06929p ne=1.41561 br=890.176m ikr=24.6746m isc=104.037n re=165.486m rc=30.9187m cje=5p mje=500m tf=8.72561n xtf=500.001m vtf=10 itf=10.0557m cjc=5p mjc=500m tr=49.7597u mfg=INTEGRAL
