* KT864
* bjt/npn/kt864.mod

.model kt864 npn is=24.9153p bf=302.064 nf=1.01568 vaf=62.6667 ikf=5.47508 ise=97.1198p ne=1.34428 br=2 ikr=10k isc=3.056317e-018 re=31.1943m rc=2.58584m cje=2.61852n vje=700m mje=499.936m tf=10.4204n xtf=500m vtf=10 itf=9.65884m cjc=856.505p vjc=700m mjc=500.242m tr=10n

* mfg: INTEGRAL
