* KT882
* bjt/npn/kt882.mod

.model kt882 npn is=340.104f bf=367.414 nf=1.05592 vaf=45.7 ikf=321.145m ise=163.627p ne=1.81742 br=1.82029 ikr=9.99998m isc=128.201p re=225.736m rc=680.629m cje=589.164p vje=700m mje=499.924m tf=8.43468n xtf=499.998m vtf=10 itf=9.90076m cjc=99.9225p vjc=699.997m mjc=500.226m tr=38.6331u

* mfg: INTEGRAL
