* KT903
* bjt/npn/kt903.mod

.model kt903 npn is=9.99927f bf=200.011 nf=998.719m vaf=100 ikf=1 ise=1.035p ne=1.45108 br=5 ikr=994.189 isc=2.46003f nc=2 re=1.0747 cje=2p mje=500m tf=1.24961n xtf=500m vtf=10 itf=10.182m cjc=1.15697n vjc=750.038m mjc=501.035m tr=1.218484e-018 eg=1.11 fc=500m

* Vceo: 60
* Icrating: 3
* mfg: USSR
