* KT903_
* bjt/npn/kt903_.mod

.MODEL KT903_ NPN (IS=221F NF=1 BF=65 VAF=139 IKF=1 ISE=297P NE=2 BR=4 NR=1 VAR=16 IKR=2.7 RE=0.41 RB=1.64 RC=0.164 XTB=1.5 CJE=277P VJE=0.6 MJE=0.5 CJC=180P VJC=0.3 MJC=0.3 TF=1.33N TR=51N Vceo=60 Icrating=3 mfg=USSR)
