* KT908B
* bjt/npn/kt908b.mod

.model KT908b NPN(Is=114.5f Xti=3 Eg=1.11 Vaf=100 Bf=88.91 Ise=803.2f Ne=1.272 Ikf=9.223 Nk=.4226 Xtb=1.5 Br=1.285 Isc=2.344p Nc=1.542 Ikr=1.09 Rc=69.93m Cjc=974.7p Mjc=.3085 Vjc=.75 Fc=.5 Cje=1.737n Mje=.33 Vje=.75 Tr=1.534u Tf=1.984n Itf=18.5 Xtf=3.4 Vtf=50 mfg=USSR)
