* KT908A
* bjt/npn/kt908a.mod

.model KT908a NPN(Is=114.5f Xti=3 Eg=1.11 Vaf=100 Bf=87.62 Ise=1.429p Ne=1.286 Ikf=8.713 Nk=.4649 Xtb=1.5 Br=1.423 Isc=2.393p Nc=1.53 Ikr=.9543 Rc=56.36m Rb=1 Cjc=974.7p Mjc=.3085 Vjc=.75 Fc=.5 Cje=1.737n Mje=.33 Vje=.75 Tr=1.534u Tf=1.984n Itf=18.5 Xtf=3.4 Vtf=50 mfg=USSR)
