* KT922B
* bjt/npn/kt922b.mod

.model KT922b NPN(Is=292.3f Xti=3 Eg=1.11 Vaf=81.41 Bf=84.63 Ne=1.406 Ise=4.199p Ikf=2.359 Xtb=1.5 Br=1 Isc=17.13p Nc=1.803 Ikr=1.68 Rb=2 Rc=.9759 Cjc=48.58p Mjc=.33 Vjc=.75 Fc=.5 Cje=153.3p Mje=.33 Vje=.75 Tr=141.3n Tf=211.6p Itf=8 Xtf=.45 Vtf=40)

* Nk: .5229
* mfg: USSR
