* KT928B
* bjt/npn/kt928b.mod

.model KT928b NPN(Is=16.09f Xti=3 Eg=1.11 Vaf=81.41 Bf=247.7 Ise=143.2f Ne=1.385 Ikf=.3491 Xtb=1.5 Br=1.2 Isc=57.65p Nc=2.096 Ikr=1.637 Rb=12 Rc=1.654 Cjc=14.57p Mjc=.33 Vjc=.75 Fc=.5 Cje=78.2p Mje=.33 Vje=.75 Tr=279.5n Tf=373.8p Itf=1 Xtf=2 Vtf=40)

* Nk: .5807
* mfg: USSR
