* KT922V
* bjt/npn/kt922v.mod

.model KT922v NPN(Is=430.3f Xti=3 Eg=1.11 Vaf=81.41 Bf=84.02 Ne=1.397 Ise=5.318p Ikf=3.706 Nk=.5578 Xtb=1.5 Br=1.734 Isc=7.445p Nc=1.577 Ikr=.166 Rb=3 Rc=.5487 Cjc=121.5p Mjc=.33 Vjc=.75 Fc=.5 Cje=408.7p Mje=.33 Vje=.75 Tr=110.7n Tf=234.7p Itf=30 Xtf=.7 Vtf=40 mfg=USSR)
