* KT921A
* bjt/npn/kt921a.mod

.model KT921a NPN(Is=282f Xti=3 Eg=1.11 Vaf=47 Bf=69.37 Ne=1.688 Ise=164.3p Ikf=15.22 Xtb=1.5 Br=.3729 Nc=2 Isc=16.43p Ikr=15.22 Rc=.36 Rb=8 Cjc=103.1p Mjc=.245 Vjc=.75 Fc=.5 Cje=420.7p Mje=.4028 Vje=.75 Tr=838.6n Tf=628.1p Itf=15.33 Vtf=15 Xtf=1.5 mfg=USSR)
