* KT922A
* bjt/npn/kt922a.mod

.model KT922a NPN(Is=134.9f Xti=3 Eg=1.11 Vaf=81.41 Bf=86.36 Ne=1.362 Ise=1.189p Ikf=1.122 Xtb=1.5 Br=1 Isc=6.713n Nc=1.805 Ikr=1.087 Rb=3 Rc=1.308 Cjc=26.72p Mjc=.33 Vjc=.75 Fc=.5 Cje=71.52p Mje=.33 Vje=.75 Tr=272.8n Tf=185.4p Itf=1 Xtf=1.3 Vtf=40)

* Nk: .5086
* mfg: USSR
