* KT928A
* bjt/npn/kt928a.mod

.model KT928a NPN(Is=16.09f Xti=3 Eg=1.11 Vaf=81.41 Bf=127.5 Ise=85.22f Ne=1.284 Ikf=.2716 Xtb=1.5 Br=1 Isc=57.65p Nc=2.096 Ikr=1.637 Rb=11 Rc=1.538 Cjc=14.57p Mjc=.33 Vjc=.75 Fc=.5 Cje=78.2p Mje=.33 Vje=.75 Tr=402n Tf=373.8p Itf=1 Xtf=2 Vtf=40)

* Nk: .4931
* mfg: USSR
