* KT945B
* bjt/npn/kt945b.mod

.model KT945b NPN(Is=350f Xti=3 Eg=1.11 Vaf=95.7 Bf=193.9 Ise=2.284p Ne=1.377 Ikf=21.59 Nk=.7771 Xtb=1.5 Br=1.216 Isc=8.999p Nc=1.514 Ikr=.7536 Rc=.1198 Cjc=525.9p Mjc=.3229 Vjc=.75 Fc=.5 Cje=3.794n Mje=.33 Vje=.75 Tr=1.695u Tf=2.465n Itf=15 Xtf=2 Vtf=40 mfg=USSR)
