* KT968A
* bjt/npn/kt968a.mod

.model KT968a NPN(Is=89.93f Xti=3 Eg=1.11 Vaf=86 Bf=184.1 Ise=573.9f Ne=1.436 Ikf=44.6m Xtb=1.5 Br=1 Isc=25.95p Nc=1.425 Ikr=2.599 Rb=27 Rc=.701 Cjc=13.31p Mjc=.5595 Vjc=.75 Fc=.5 Cje=34.2p Mje=.33 Vje=.75 Tr=1.045u Tf=1.325n Itf=3 Xtf=2 Vtf=20)

* Nk: .4867
* mfg: USSR
