* KT969
* bjt/npn/kt969.mod

.MODEL KT969 NPN (IS=9.92442F BF=663.402 NF=1.09115 VAF=140.7 IKF=10.0012M ISE=7.03949P NE=2.14133 BR=99.8802M IKR=999.872M ISC=1.01247P NC=2 RE=2 RC=759.979M CJE=9.45723P VJE=690M MJE=564.978M CJC=9.45723P VJC=690M MJC=564.978M TF=1.26995N XTF=622.054M VTF=21.0569 ITF=34.701M TR=10N)

* mfg: USSR
