* KT961A
* bjt/npn/kt961a.mod

.model kt961a npn is=500f bf=100 vaf=100 ikf=0.2615 ise=0.988p ne=1.293 br=0.109 ikr=0 isc=0 nc=2 rb=2 re=0.01 rc=0.02 cje=75p vje=0.75 mje=0.39 tf=425p xtf=4 vtf=4 itf=0.6 cjc=60p vjc=0.75 mjc=0.39 tr=444n xtb=1.5 eg=1.11 xti=3 fc=0.5 Vceo=80 Icrating=1.5 mfg=USSR
