* MJ15003
* bjt/npn/mj15003.mod

.model mj15003 npn IS=2.87E-11 BF=195 NF=1.051 VAF=50 IKF=1.535 ISE=3.576E-11 NE=1.455 BR=7.82 NR=1 VAR=500 IKR=1.0 ISC=0.0 NC=2.0 RB=2.729 IRB=3.715E-1 RBM=1.0E-2 RE=0.001 RC=0.06 CJE=1471.48p VJE=0.8 MJE=0.6 TF=0.045u XTF=1 VTF=10 ITF=10 CJC=692.79p VJC=0.65 MJC=0.314 XCJC=0.5 TR=1E-6 XTB=1.28 XTI=3.0 FC=0.5
