* MJ15024
* bjt/npn/mj15024.mod

.MODEL mj15024 npn IS=1e-09 BF=80.9237 NF=1.41415 VAF=29.8965 IKF=3.58072 ISE=1e-16 NE=4 BR=1.00135 NR=1.5 VAR=281.892 IKR=5.80356 ISC=1e-16 NC=2.99908 RB=9.25367 IRB=0.1 RBM=0.1 RE=0.00042229 RC=0.0571126 XTB=1.12257 XTI=1.22156 EG=1.206 CJE=6.19402n VJE=0.4 MJE=0.457365 TF=1e-08 XTF=1000 VTF=1.07131 ITF=0.743213 CJC=5e-10 VJC=0.95 MJC=0.344125 XCJC=0.1 FC=0.8 TR=1e-07
