* MJ16110
* bjt/npn/mj16110.mod

.MODEL MJ16110 NPN IS=16.932p BF=50.96 IKF=10.234 ISE=3.6577n NE=1.569 BR=9.928 IKR=10m ISC=256.41p NC=1.6639 NK=.54291 RB=.26863 RC=64.148m CJE=8.996n VJE=.35 MJE=.33668 CJC=1n VJC=.35 MJC=.47185 TR=3.6u TF=32n XTF=3.47 VTF=2.25 ITF=0.106
