* MJ21194
* bjt/npn/mj21194.mod

.MODEL mj21194 npn IS=4.02325e-14 BF=10000 NF=1.1488 VAF=10000 IKF=0.377331 ISE=2.16244n NE=2.49213 BR=0.1 NR=1.5 VAR=1.70851 IKR=3.77331 ISC=1.00031e-16 NC=3.99945 RB=0.1 IRB=0.1 RBM=0.1 RE=0.00775691 RC=0.0387846 XTB=0.1 XTI=1 EG=1.05 CJE=1.07724e-08 VJE=0.975489 MJE=0.524369 TF=1e-08 XTF=2.16157e+06 VTF=0.184568 ITF=5.56361 CJC=2.68609e-10 VJC=1.64862 MJC=0.242322 XCJC=0.1 FC=0.910137 TR=1e-07
