* MJE15032_CORDELL
* bjt/npn/mje15032_cordell.mod

.MODEL MJE15032_Cordell npn IS=50p BF=105 VAF=2000 IKF=9 ISE=10p NE=2 NF=1.2 RB=16 RBM=0.1 IRB=0.1 RC=0.1 CJE=3.1n MJE=0.35 VJE=0.65 RE=0.01 CJC=0.3n MJC=0.4 VJC=0.6 FC=0.5 TF=3.8n XTF=4 VTF=10 ITF=2 TR=100n BR=6 VAR=15 NR=1.5 EG=1.2 XCJC=0.8 XTB=0.7 XTI=1.05 NC=4 ISC=0.4p IKR=5.2

* mfg: CA032911
