* MJE13003
* bjt/npn/mje13003.mod

.MODEL MJE13003 npn IS=3.38476e-13 BF=70.4395 NF=1.46002 VAF=713.551 IKF=0.2266 ISE=2.74992e-11 NE=2.22158 BR=3.83365 NR=1.38008 VAR=126.023 IKR=0.100002 ISC=9.43838e-14 NC=2.29404 RB=10 IRB=0.2 RBM=10 RE=0.0001 RC=0.061224 XTB=1.35204 XTI=3.03161 EG=1.206 CJE=4.7174e-10 VJE=0.43016 MJE=0.295041 TF=1e-08 XTF=1.76126 VTF=4.70624 ITF=0.001 CJC=7.38617e-11 VJC=0.4 MJC=0.359328 XCJC=0.794116 FC=0.8 TR=3.2234u Vceo=400 Icrating=1.5
