* MJE12007
* bjt/npn/mje12007.mod

.MODEL MJE12007 NPN (BF=33.39 BR=18.749860161962m CJC=229p CJE=2n FC=500m IKF=387.32m IKR=21.27m IS=9.84f ISC=99.74p ISE=1.0031p ITF=6.253m MJC=558m MJE=500m NC=2 NE=1.24009351669 NF=906.91m RE=113.48m TF=29.075n TR=10n VAF=100 VJC=700m VTF=10 XTF=500m Vceo=1500 Icrating=2.5 mfg=On_Semi)
