* MJE18008
* bjt/npn/mje18008.mod

.MODEL MJE18008 npn IS=1n BF=16.2807 NF=0.85 VAF=17.9534 IKF=8.91667 ISE=6.94438p NE=3.38189 BR=1.62807 NR=0.82571 VAR=5.01712 IKR=3.65604 ISC=4.43005e-13 NC=3.99216 RB=2.7149 IRB=0.1 RBM=0.1 RE=0.0001 RC=0.0871278 XTB=0.121787 XTI=1 EG=1.05 CJE=4.65558n VJE=0.446548 MJE=0.330981 TF=1e-08 XTF=1.83198 VTF=3.88526 ITF=0.338593 CJC=3.83049e-10 VJC=0.4 MJC=0.456299 XCJC=0.799262 FC=0.8 TR=9.46239u_Semi

* Vceo: 450
* Icrating: 8
* mfg: On
