* MJE243_CORDELL
* bjt/npn/mje243_cordell.mod

.MODEL MJE243_Cordell npn IS=800f BF=190 VAF=1177 IKF=1.2 ISE=10p NE=1.7 NF=1.06 RB=45 RC=0.2 RE=0.01 CJE=210p MJE=0.4 VJE=1 CJC=85p MJC=0.3 VJC=0.4 FC=0.58 TF=3300p XTF=7 VTF=11 ITF=5 TR=1000n BR=1.7 IKR=1.0 EG=1.05 XTB=1.2 XTI=0.8 NC=2.9 ISC=1e-16 NR=1.04 VAR=140 IRB=5e-5 RBM=0.001 XCJC=0.8 mfg=CA031111
