* MJF44H11
* bjt/npn/mjf44h11.mod

.MODEL mjf44h11 npn IS=1.32547e-11 BF=164.27 NF=1.16023 VAF=46.9759 IKF=4.32946 ISE=2.61723e-12 NE=1.62633 BR=1.80421 NR=1.16498 VAR=469.765 IKR=0.670133 ISC=2.61723p NC=3.00051 RB=1.61538 IRB=0.1 RBM=0.1 RE=0.00864486 RC=0.0432243 XTB=0.1 XTI=1 EG=1.05 CJE=1.04839e-09 VJE=0.651544 MJE=0.353502 TF=3.84017e-09 XTF=1.35721 VTF=0.995712 ITF=0.999991 CJC=3.7959e-10 VJC=0.422311 MJC=0.334082 XCJC=0.803125 FC=0.533765 TR=1.93641e-08 PTF=0
