* MJH16018
* bjt/npn/mjh16018.mod

.MODEL MJH16018 NPN (BF=56.307 BR=5 CJC=979.2p CJE=11n IKF=1 IKR=1 IS=10f ISC=.000041917f ISE=91.2145p ITF=10m MJC=499.767m MJE=674.36m NC=2 NE=1.1848 NF=710.736m RC=476.5m RE=28.51m TF=1n TR=13.65u VAF=100 VJC=700m VJE=757.6m VTF=10 XTF=500m_Semi)

* Vceo: 800
* Icrating: 10
* mfg: On
