* MJH16010A
* bjt/npn/mjh16010a.mod

.MODEL MJH16010A NPN (BF=162.27 BR=2.74m CJC=1.06n CJE=9.48n FC=500m IKF=999.1m IKR=541.62 IS=9.742f ISC=98.3p ISE=98.4623p ITF=10m MJC=456.493m MJE=540.839m NC=2 NE=1.4412 NF=861.448m RC=51m RE=23m TF=1n TR=3.482318035635m VAF=100 VJC=700m VJE=994m VTF=10 XTF=500m Vceo=500 Icrating=15 mfg=On_Semi)
