* MJK055T
* bjt/npn/mjk055t.mod

.MODEL mjk055t npn IS=1.92238e-13 BF=327.43 NF=0.85 VAF=36.105 IKF=0.620037 ISE=1.4602e-10 NE=1.50926 BR=0.654697 NR=0.935367 VAR=361.05 IKR=6.20037 ISC=6.85154p NC=2.96871 RB=16.05 IRB=0.1 RBM=0.161446 RE=0.000602331 RC=0.0632768 XTB=0.943656 XTI=1.12302 EG=1.05 CJE=9.23675e-08 VJE=0.506151 MJE=0.607139 TF=1e-08 XTF=1.35736 VTF=0.997047 ITF=0.999796 CJC=5e-10 VJC=0.400198 MJC=0.410184 XCJC=0.803125 FC=0.658133 TR=1e-07
