* MJK40_CORDELL
* bjt/npn/mjk40_cordell.mod

.MODEL MJk40_Cordell npn IS=800f BF=180 VAF=100 IKF=0.35 ISE=25p NE=1.5 RB=21 RC=2 RE=0.01 CJE=170p CJC=140p TF=7600p XTF=10 VTF=10 ITF=1 TR=10000p BR=0.004 IKR=0.05 EG=0.64 NC=2 ISC=1.5e-10 VAR=100

* mfg: CA030711
