* MJL3281A
* bjt/npn/mjl3281a.mod

.MODEL mjl3281a npn IS=6.5498e-11 BF=139.247 NF=1.00176 VAF=46.776 IKF=10 ISE=7.75232p NE=3.34341 BR=4.98985 NR=1.09511 VAR=4.32026 IKR=4.37516 ISC=3.25e-13 NC=3.96875 RB=11.988 IRB=0.111742 RBM=0.102914 RE=0.00127227 RC=0.209833 XTB=0.115253 XTI=1.03146 EG=1.11986 CJE=1e-07 VJE=0.4 MJE=0.450375 TF=7.04629e-10 XTF=1000 VTF=2.06045 ITF=41.8156 CJC=5e-10 VJC=0.4 MJC=0.85 XCJC=0.959922 FC=0.1 TR=1e-07
