* MJL4281A
* bjt/npn/mjl4281a.mod

.MODEL mjL4281a npn IS=9.94641e-11 BF=191.836 NF=1.11524 VAF=24.7449 IKF=5.75399 ISE=6.4507p NE=3.39407 BR=4.35182 NR=1.1764 VAR=4.25175 IKR=6.61715 ISC=3.89999e-13 NC=3.99 RB=4.37715 IRB=0.00966879 RBM=1f RE=0.00608852 RC=0.0434329 XTB=0.661303 XTI=1.00355 EG=1.05 CJE=9.04931n VJE=0.99 MJE=0.844324 TF=1.6665n XTF=1000 VTF=17023.9 ITF=152.472 CJC=8.80163e-10 VJC=0.942802 MJC=0.23183 FC=0.8 TR=1e-07_Semi

* Vceo: 350
* Icrating: 15
* mfg: ON
