* MJL4281_CORDELL
* bjt/npn/mjl4281_cordell.mod

.MODEL MJL4281_Cordell npn IS=5p BF=158 VAF=1000 IKF=50 ISE=20p NE=1.5 NF=1 RB=3.0 RC=0.1 CJE=11n MJE=0.35 VJE=0.5 CJC=1.2n MJC=0.5 VJC=0.6 FC=0.1 TF=2.7n XTF=7500 VTF=3 ITF=750 TR=100n BR=5 VAR=4.3 NR=1.1 EG=1.1 .0 XTB=0.12 XTI=1.0 NC=4 ISC=0.3p IKR=4.4 Vceo=200 Icrating=15 mfg=CA041611
