* MMBTH10
* bjt/npn/mmbth10.mod

.model MMBTH10 npn IS=69.28e-18 XTI=3 EG=1.11 VAF=100 BF=308.6 NE=1.197 ISE=69.28e-18 IKF=22.83m XTB=1.5 BR=1.11 NC=2 IKR=0 RC=4 CJC=1.042p MJC=0.2468 VJC=0.75 FC=0.5 CJE=1.52p MJE=0.3223 VJE=0.75 TR=1.558n TF=135.8p ITF=0.27 VTF=10 XTF=30 RB=10

* Vceo: 25
* Icrating: 50m
* MFG: Fairchild
