* MMBTH11
* bjt/npn/mmbth11.mod

.model MMBTH11 npn IS=1.09739E-14 BF=152.3 NF=1 BR=0.34 NR=1 ISE=1.46737p NE=2.0 ISC=8.31131n NC=1.5 VAF=100.25 VAR=11.78 IKF=0.2611 IKR=7.50638E-2 RB=38.5 RBM=0.085 IRB=3.5E-6 RE=0.044 RC=4.85 CJE=2.83322p VJE=0.443943 MJE=0.2580119 FC=0.5 CJC=6.004932E-13 VJC=0.5 MJC=0.2397007 TF=2.38E-10 XTB=1.1926 EG=0.84 XTI=3

* Vceo: 25
* Icrating: 50m
* MFG: Fairchild
