* MMBT2369
* bjt/npn/mmbt2369.mod

.MODEL MMBT2369 NPN IS=1.41f ISE=8.78E-14 NE=1.851 BF=95.39 IKF=0.1968 VAF=47.34 ISC=3.283E-10 NC=1.664 BR=1 IKR=11.89 RC=1.282 XTB=1.5 EG=1.11 XTI=3.0 CJE=4.568p VJE=0.6397 MJE=0.2747 CJC=1.948p VJC=1.558 MJC=8.834E-02 FC=0.5 TR=1.432E-07 TF=2.502E-10 ITF=0.6489 XTF=19.05 VTF=10

* NK: 1.605
