* MMBT6428
* bjt/npn/mmbt6428.mod

.MODEL MMBT6428 npn IS=2.04174p BF=248.7 NF=1 BR=0.0275 NR=1 ISE=4.7544E-13 NE=2 ISC=2.29087f NC=1.5 VAF=176.831 VAR=35.3 IKF=0.544627 IKR=0.158489 RB=125 RBM=8.092 IRB=1.12202E-7 RE=0.28 RC=2.4 CJE=8.50889p VJE=0.7175263 MJE=0.3413777 FC=0.5 CJC=6.03462p VJC=0.5 MJC=0.3226407 XTB=1.26 EG=0.84 XTI=3 TF=8.73n)

* Vceo: 50
* Icrating: 0.5
* mfg: fairchild
