* MMBT2369ALT1
* bjt/npn/mmbt2369alt1.mod

.MODEL mmbt2369alt1 npn IS=1.43984e-13 BF=526.086 NF=1.21978 VAF=3.62518 IKF=0.00878191 ISE=1e-08 NE=3.71149 BR=2.58372 NR=1.22662 VAR=7.2229 IKR=0.0878191 ISC=1e-08 NC=2.29158 RE=0.0001 RC=1.22519 XTB=1p XTI=1p EG=1.05 CJE=3.2936p VJE=0.329753 MJE=0.23 TF=4e-10 XTF=1.5 VTF=1 ITF=1 CJC=3.07126p VJC=0.120633 MJC=0.0566184 XCJC=0.8 FC=0.533333 TR=6.09825e-09_Semi

* mfg: ON
