* MP35
* bjt/npn/mp35.mod

.model mp35 npn bf=140 br=4 eg=0.72 cje=50p cjc=90p tf=0.2u tr=2.u is=3u ikf=50m vaf=15 mje=0.5 mjc=0.5 rb=150 rbm=50 irb=0.1m ise=0.3u ne=1.28 isc=0.6u nc=1.28 mfg=GERMANIUM_USSR
