* MPS6520
* bjt/npn/mps6520.mod

.MODEL MPS6520 NPN (IS=10.2F NF=1 BF=390 VAF=90 IKF=60M ISE=3.36P NE=2 BR=4 NR=1 VAR=16 IKR=90M RE=0.515 RB=2.06 RC=0.206 XTB=1.5 CJE=17.6P VJE=1.1 MJE=0.5 CJC=5.68P VJC=0.3 MJC=0.3 TF=324P TR=225N Vceo=25 ICrating=100m mfg=Motorola)
