* MPS651
* bjt/npn/mps651.mod

.MODEL MPS651 NPN (IS=72.1F NF=1 BF=260 VAF=139 IKF=2.5 ISE=67.1P NE=2 BR=4 NR=1 VAR=20 IKR=3.75 RE=28.2M RB=.113 RC=11.3M XTB=1.5 CJE=212P VJE=1.1 MJE=.5 CJC=68.6P VJC=.3 MJC=.3 TF=1.44N TR=1U)
