* MPSA10
* bjt/npn/mpsa10.mod

.MODEL MPSA10 NPN(IS=61.01f ISE=76.83f ISC=0 XTI=3 BF=193 BR=0.2195 IKF=97.79m IKR=0 XTB=1.5 VAF=57.37 VAR=19 VJE=0.65 VJC=0.65 RE=0.15 RC=2.14 RB=10 CJE=5.928p CJC=6.072p XCJC=0.75 FC=0.5 NF=1 NR=1 NE=1.305 NC=2 MJE=0.3333 MJC=0.3333 TF=316.3p TR=1.573E-6 ITF=0.2 VTF=5 XTF=8 EG=1.11 VCEO=40 ICRATING=100m MFG=NSC)
