* MPSA06-NS
* bjt/npn/mpsa06-ns.mod

.MODEL MPSA06/NS NPN (IS=8.324F XTI=3 EG=1.11 VAF=100 BF=12.16K NE=1.368 ISE=73.27F IKF=.1096 XTB=1.5 BR=11.1 NC=2 ISC=0 IKR=0 RC=.25 CJC=18.36P MJC=.3843 VJC=.75 FC=.5 CJE=55.61P MJE=.3834 VJE=.75 TR=72.15N TF=516.1P ITF=.5 VTF=4 XTF=6 RB=10)
