* MPSA44
* bjt/npn/mpsa44.mod

.MODEL MPSA44 NPN IS=186.36f BF=60.596 VAF=9.2909 IKF=.1107 ISE=1.8215p NE=1.5767 BR=499.5 VAR=100 IKR=19.98 ISC=1.2445u NC=2.997 RE=490u RB=5.2315 RC=1m CJE=104.69p VJE=1.0643 MJE=.41036 CJC=9.8356p VJC=.35 MJC=.28065 TF=5.1798n XTF=3.2122 VTF=25.04 ITF=.19258 TR=6.837u

* NK: .78598
