* MPSA42-NS
* bjt/npn/mpsa42-ns.mod

.MODEL MPSA42/NS NPN (IS=34.9F XTI=3 EG=1.11 VAF=100 BF=2.56K NE=1.708 ISE=16.32P IKF=23.79M XTB=1.5 BR=9.769 NC=2 ISC=0 IKR=0 RC=7 CJC=14.23P MJC=.5489 VJC=.75 FC=.5 CJE=49.62P MJE=.4136 VJE=.75 TR=934.3P TF=1.69N ITF=5 VTF=20 XTF=150 RB=10)
