* MPSL01
* bjt/npn/mpsl01.mod

.MODEL MPSL01 NPN(IS=2.511f ISE=2.511f ISC=0 XTI=3 BF=213.4 BR=3.24 IKF=0.3495 IKR=0 XTB=1.5 VAF=100 VAR=30 VJE=0.65 VJC=0.65 RE=0.1 RC=1 RB=10 CJE=18.79p CJC=4.883p XCJC=0.75 FC=0.5 NF=1 NR=1 NE=1.241 NC=2 MJE=0.3416 MJC=0.3047 TF=560.1p TR=1.212n ITF=50m VTF=5 XTF=8 EG=1.11)

* VCEO: 120
* ICRATING: 150
* MFG: NSC
