* NJL0281DG_BJT
* bjt/npn/njl0281dg_bjt.mod

.MODEL njL0281dg_bjt npn IS=7.35019e-14 BF=113.063 NF=1.21951 VAF=10.158 IKF=8.51404 ISE=8.83106p NE=2.0497 BR=4.9071 NR=1.25326 VAR=8.60208 IKR=6.78731 ISC=3.59743e-13 NC=3.99215 RB=0.526348 IRB=0.1 RBM=0.526348 RE=0.000612798 RC=0.0302655 XTB=0.1 XTI=1 EG=1.05 CJE=5.60463n VJE=0.600913 MJE=0.848202 TF=2.07647e-09 XTF=1000 VTF=4157.4 ITF=217.206 CJC=4.77948e-10 VJC=0.528497 MJC=0.23 FC=0.430232 TR=1e-07 Vceo=260 Icrating=15 mfg=ON_Semi
