* NJL21194DG_BJT
* bjt/npn/njl21194dg_bjt.mod

.MODEL njL21194dg_bjt npn IS=9.56205e-11 BF=62.3633 NF=0.858602 VAF=29.6613 IKF=9.86004 ISE=7.00007p NE=3.43749 BR=4.96358 NR=0.925054 VAR=6.18692 IKR=4.87016 ISC=3.25e-13 NC=4 RB=11.0204 IRB=0.1 RBM=0.1 RE=0.000675706 RC=0.124974 XTB=0.150823 XTI=1.00001 EG=1.11955 CJE=1.70807e-08 VJE=0.4 MJE=0.520397 TF=1e-08 XTF=47.3046 VTF=1.88154 ITF=0.560261 CJC=5e-10 VJC=0.95 MJC=0.238884 XCJC=0.800727 FC=0.8 TR=1e-07_Semi

* Vceo: 250
* Icrating: 16
* mfg: ON
