* NJL3281D
* bjt/npn/njl3281d.mod

.MODEL njl3281d npn IS=4.06068p BF=108.067 NF=1.01389 VAF=33.707 IKF=9.7899 ISE=4.00073p NE=3.49994 BR=2.92796 NR=1.0727 VAR=5.37566 IKR=9.53639 ISC=5.5e-13 NC=3.9375 RB=5.68023 IRB=0.1 RBM=0.253 RE=0.000516188 RC=0.0540679 XTB=0.837253 XTI=1.03611 EG=1.05 CJE=1.11456e-08 VJE=0.769163 MJE=0.420032 TF=2.04968e-09 XTF=1000 VTF=3.97956 ITF=173.585 CJC=1e-09 VJC=0.765901 MJC=0.480482 FC=0.8 TR=1e-07 Vceo=260 Icrating=15 MFG=Onsemi
