* NJL4281DG_BJT
* bjt/npn/njl4281dg_bjt.mod

.MODEL njL4281dg_bjt npn IS=1.28825e-11 BF=300 NF=1.02019 VAF=10.7547 IKF=0.97929 ISE=2.28745e-11 NE=1.44568 BR=0.1 NR=1.29449 VAR=4.22157 IKR=9.7929 ISC=1.04073e-16 NC=2.85967 RB=1.34764 IRB=0.140361 RBM=0.1 RE=0.00828762 RC=0.0414381 XTB=0.1 XTI=1 EG=1.05 CJE=2.34884e-08 VJE=22.295 MJE=0.69263 TF=1.28186n XTF=131.233 VTF=63578.9 ITF=53.7291 CJC=4.85466e-10 VJC=0.95 MJC=0.23 FC=0.8 TR=1e-07_Semi

* Vceo: 350
* Icrating: 15
* mfg: ON
