* NSF2250WT1
* bjt/npn/nsf2250wt1.mod

.MODEL nsf2250wt1 npn IS=4.01844e-16 BF=300.352 NF=0.919176 VAF=1000 IKF=0.0715213 ISE=1.64917e-10 NE=3.65708 BR=6.92239 NR=0.904339 VAR=2.45616 IKR=0.715213 ISC=1e-16 NC=4 RB=1000 IRB=100 RBM=0.711072 RE=0.288938 RC=1.44469 XTB=0.571921 XTI=40 EG=1.05 CJE=9.19185e-13 VJE=0.854523 MJE=0.85 TF=2.50954e-11 XTF=1000 VTF=1303.15 ITF=1.96943 CJC=1.43298p VJC=0.95 MJC=0.23 XCJC=0.1 FC=0.8 TR=1e-07 mfg=ON_Semi
