* PBSS302NX
* bjt/npn/pbss302nx.mod

.MODEL PBSS302NX NPN IS=1.39p NF=0.9539 ISE=1.265E-014 NE=1.426 BF=570 IKF=13 VAF=40 NR=0.954 ISC=4.055E-014 NC=1.216 BR=380 IKR=1.2 VAR=14 RB=19.5 IRB=0.00052 RBM=0.688 RE=0.015 RC=0.0084 XTB=0 EG=1.11 XTI=3 CJE=9.419E-010 VJE=0.7772 MJE=0.3561 TF=1.85n XTF=1 VTF=5 ITF=1.9 CJC=2.947E-010 VJC=0.6762 MJC=0.4078 TR=1n FC=0.8

* Vceo: 20
* Icrating: 5.3
* mfg: NXP
