* PMBT6429
* bjt/npn/pmbt6429.mod

.MODEL PMBT6429 NPN IS=3.591E-14 NF=0.997 ISE=1.17E-14 NE=1.95 BF=600 IKF=0.08 VAF=77 NR=0.9927 ISC=2.885E-18 NC=0.8 BR=20 VAR=27 RB=478 IRB=2.5E-05 RBM=1 RE=0.35 RC=0.8 XTB=0 EG=1.11 XTI=3 CJE=1.116E-11 VJE=0.6 MJE=0.3536 TF=3.8E-10 XTF=6 VTF=6.4 ITF=0.16 CJC=3.552p VJC=0.3992 MJC=0.3822 TR=2.5E-08 FC=0.78 Vceo=45 Icrating=100m mfg=NXP
