* PN100
* bjt/npn/pn100.mod

.MODEL PN100 NPN (IS=50.8F NF=1 BF=292 VAF=156 IKF=0.3 ISE=22.4P NE=2 BR=4 NR=1 VAR=24 IKR=0.45 RE=0.103 RB=0.412 RC=41.2M XTB=1.5 CJE=15.2P VJE=1.1 MJE=0.5 CJC=7.1P VJC=0.3 MJC=0.3 TF=636P TR=357N Vceo=45 Icrating=500m mfg=Fairchild)
