* PZTA42
* bjt/npn/pzta42.mod

.MODEL PZTA42 NPN IS=1.285E-014 NF=0.9841 ISE=1.56E-014 NE=1.387 BF=159.3 IKF=0.01406 VAF=19.72 NR=0.9898 ISC=5.445E-016 NC=1.224 BR=7.551 IKR=0.4786 VAR=54.95 RB=1.5 IRB=7E-005 RBM=460 RE=0.003999 RC=0.3995 XTB=0 EG=1.11 XTI=3 CJE=3.899E-011 VJE=0.6544 MJE=0.3086 TF=2n XTF=30 VTF=1.652 ITF=0.05943 CJC=5.94p VJC=0.3006 MJC=0.3099 TR=1E-008 FC=0.8177
