* Q2N2193A
* bjt/npn/q2n2193a.mod

.model Q2N2193A NPN(Is=14.1f Vaf=100 Bf=88.85 Ikf=.75 Xtb=1.5 Br=5.591 Nc=2 Rc=.7 Cjc=15.65p Mjc=.3603 Vjc=.75 Fc=.5 Cje=55.06p Mje=.1553 Vje=.75 Tr=34.18n Tf=808.1p Itf=1.2 Xtf=55 Vtf=5)

* Nk: .5
