* Q2N3055
* bjt/npn/q2n3055.mod

.model Q2N3055 NPN(Is=974.4f Xti=3 Eg=1.11 Vaf=50 Bf=99.49 Ne=1.941 Ise=902.5p Ikf=4.029 Xtb=1.5 Br=2.949 Nc=2 Isc=0 Ikr=0 Rc=.1 Cjc=276p Vjc=.75 Mjc=.3333 Fc=.5 Cje=569.1p Vje=.75 Mje=.3333 Tr=971.7n Tf=39.11n Itf=20 Vtf=10 Xtf=2 Rb=.1)

* Vceo: 60
* Icrating: 15
* mfg: Texas
