* Q2SC5171
* bjt/npn/q2sc5171.mod

.MODEL Q2SC5171 NPN( IS=10f BF=210 VAF=100 IKF=10.000m XTB=1.5 BR=.1001 VAR=100 IKR=10.000m ISC=10.000f CJE=2.0000p CJC=38.866p MJC=.33333 TF=83.239p XTF=10 VTF=10 ITF=1)
