* Q2SD717
* bjt/npn/q2sd717.mod

.MODEL Q2SD717 NPN IS=372.08f BF=233.75 VAF=100 IKF=6.5821 ISE=3.7798p NE=1.4138 BR=16.414 VAR=100 IKR=2.1719 ISC=427.04f NC=1.1742 NK=.56032 RB=.25 RC=33.315m CJE=1.0967n MJE=.33333 CJC=850.19p MJC=.33333 TF=2.7237n XTF=10 VTF=10 ITF=1 TR=436.3n
