* QNJW0281G
* bjt/npn/qnjw0281g.mod

.MODEL Qnjw0281g npn IS=4.36849p BF=98.1488 NF=1.01332 VAF=37.9046 IKF=9.71849 ISE=1e-16 NE=1.8326 BR=0.79921 NR=1.09994 VAR=339.743 IKR=5.77305 ISC=1e-16 NC=2.71592 RB=2.74892 IRB=0.33289 RBM=2.74892 RE=0.000344671 RC=0.03203 XTB=1.7742 XTI=1.12262 EG=1.20598 CJE=3.66793e-09 VJE=0.74806 MJE=0.85 TF=2.27115e-09 XTF=1000 VTF=912.955 ITF=296.602 CJC=5e-10 VJC=0.95 MJC=0.270858 XCJC=0.98254 FC=0.8 TR=1e-07
