* S518T
* bjt/npn/s518t.mod

.model S518T NPN(Is=150.1f Xti=3 Eg=1.11 Vaf=100 Bf=49.32 Ise=58.07p Ne=1.525 Ikf=1.856 Xtb=1.5 Br=1.867 Isc=274.5f Nc=1.685 Ikr=2.673 Rc=42.09m Cjc=303.6p Mjc=.3333 Vjc=.5 Fc=.5 Cje=910.8p Mje=.3333 Vje=.5 Tr=1u Tf=20.52n Itf=4.991 Xtf=87.42 Vtf=10)

* Nk: .6661
* Vceo: 700
* Icrating: 8
* mfg: TFK
