* SMBTA05
* bjt/npn/smbta05.mod

.model SMBTA05 NPN(Is=9.744f Xti=3 Eg=1.11 Vaf=100 Bf=104 Ise=96.9f Ne=1.615 Ikf=.6711 Nk=.5215 Xtb=1.5 Br=7.835 Isc=6.488p Nc=1.471 Ikr=1.021 Rc=.3037 Cjc=12p Mjc=.3333 Vjc=.5 Fc=.5 Cje=36p Mje=.3333 Vje=.5 Tr=10n Tf=1.333n Itf=30.41 Xtf=484.6 Vtf=10 Vceo=60 Icrating=500m mfg=Siemens)
