* SMBT3904
* bjt/npn/smbt3904.mod

.model SMBT3904 NPN(Is=9.744f Xti=3 Eg=1.11 Vaf=190.7 Bf=589.6 Ise=173.5f Ne=1.416 Ikf=20.51m Xtb=1.5 Br=1 Isc=99.04p Nc=1.675 Ikr=10.67 Rc=1.971 Cjc=6.901p Mjc=.3333 Vjc=.5 Fc=.5 Cje=6.64p Mje=.3333 Vje=.5 Tr=386.2n Tf=296.4p Itf=241.2 Xtf=496.2K Vtf=10)

* Nk: .5689
* Vceo: 40
* Icrating: 200m
* mfg: Siemens
