* SMBT2222
* bjt/npn/smbt2222.mod

.model SMBT2222 NPN(Is=9.744f Xti=3 Eg=1.11 Vaf=100 Bf=122.1 Ise=116.9f Ne=1.485 Ikf=.5201 Xtb=1.5 Br=5.309 Isc=7.693n Nc=2.439 Ikr=15.54 Rc=.6155 Cjc=17.01p Mjc=.49 Vjc=.5 Fc=.5 Cje=51p Mje=.3333 Vje=.5 Tr=57.91n Tf=482.2p Itf=.7603 Xtf=12.98 Vtf=10)

* Nk: .5543
* Vceo: 100
* Icrating: 500m
* mfg: Siemens
