* SMBTA20
* bjt/npn/smbta20.mod

.model SMBTA20 NPN(Is=3.31f Xti=3 Eg=1.11 Vaf=100 Bf=315.3 Ise=30.83f Ne=1.744 Ikf=67.18m Nk=.3523 Xtb=1.5 Br=5.232 Isc=1.227p Nc=1.561 Ikr=.6492 Rc=1.623 Cjc=12.2p Mjc=.3333 Vjc=.5 Fc=.5 Cje=8.614p Mje=.3333 Vje=.5 Tr=10n Tf=591p Itf=1.423 Xtf=51.17 Vtf=10 Vceo=40 Icrating=100m mfg=Siemens)
