* SS9014
* bjt/npn/ss9014.mod

.model ss9014 npn is=2.87599e-14 bf=377.5 vaf=123 ikf=1.1841 ise=4.7863f ne=1.5 br=4.79 var=11.29 ikr=0.275423 isc=1.44544e-14 nc=1.5 rb=200 irb=1e-5 rbm=10 re=0.56 rc=5 cje=1.7205e-11 vje=0.6905907 mje=0.3193434 tf=5.89463e-10 cjc=6.2956p vjc=0.4164212 mjc=0.2559546 xcjc=0.451391 xtb=1.8881 eg=1.2415 xti=3 fc=0.5 Vceo=45 Icrating=0.1 mfg=Fairchild
