* T0221
* bjt/npn/t0221.mod

.MODEL T0221 NPN(IS=0.180p ISE=8.480f ISC=0.102p XTI=4.800 BF=449.302 BR=16.919 IKF=0.820 IKR=0.663 XTB=1.500 VAF=95.0 VAR=13.0 VJE=0.850 VJC=0.780 RE=0.170 RC=0.289 RB=0.750 RBM=0.375 IRB=0.100m CJE=63.400p CJC=16.600p XCJC=0.650 FC=0.750 NF=1.0 NR=1.005 NE=1.566 NC=1.764 MJE=0.372 MJC=0.433 TF=0.81n TR=2.6n PTF=1 ITF=0.45 VTF=1.5 XTF=4.3 EG=1.11)

* MFG: SIEMENS
