* T236
* bjt/npn/t236.mod

.MODEL T236 NPN(IS=9.6952f ISE=3.7545f ISC=4.5491E-18 XTI=3 BF=86.665 NR=1.1471 IKF=1.9049 IKR=0.019155 XTB=1.5 VAF=33.548 VAR=45.693 VJE=0.87721 VJC=1.0086 RE=1.4768 RC=0.075508 RB=1.0193 RBM=0 IRB=0.00020816 CJE=3.2968E-14 CJC=2.9998p XCJC=0.020778 FC=0.56371 NF=0.46449 BR=61.012 NE=0.74837 NC=1.2809 MJE=0.51738 MJC=0.39102 TF=4.2719E-11 TR=1.3578E-10 ITF=0.0047293 VTF=0.11783 XTF=0.26853 EG=1.11 MFG=SIEMENS)
