* TIP41C_
* bjt/npn/tip41c_.mod

.MODEL TIP41C_ NPN ( IS=290.83f BF=113.55 VAF=100 IKF=1.9905 ISE=1.3946p NE=1.4763 BR=.1001 VAR=100 IKR=10.010m ISC=320.65p NC=1.8994 RB=.71129 CJE=348.44p VJE=.78228 MJE=.42865 CJC=184.26p VJC=.47897 MJC=.40458 TF=36.381n XTF=100.32 VTF=21.563 ITF=28.791 TR=10n_Semi)

* NK: .58929
* Vceo: 100
* ICrating: 6
* mfg: Central
