* TIS97
* bjt/npn/tis97.mod

.MODEL TIS97 NPN(IS=12.03f ISE=1.439p ISC=0 XTI=3 BF=877.7 BR=4.379 IKF=0.1072 IKR=0 XTB=1.5 VAF=37.37 VAR=12.5 VJE=0.65 VJC=0.65 RE=0.1 RC=1 RB=10 CJE=8.307p CJC=3.123p XCJC=0.75 FC=0.5 NF=1 NR=1 NE=1.971 NC=2 MJE=0.384 MJC=0.3199 TF=390p TR=679.5p ITF=0.17 VTF=3 XTF=8 EG=1.11 VCEO=60 ICRATING=200m MFG=NSC)
