* TIS98
* bjt/npn/tis98.mod

.MODEL TIS98 NPN(IS=4.872f ISE=14.65f ISC=0 XTI=3 BF=96 BR=6.935 IKF=0.1434 IKR=0 XTB=1.5 VAF=100 VAR=30 VJE=0.65 VJC=0.65 RE=0.15 RC=0.7 RB=10 CJE=10.49p CJC=8.866p XCJC=0.75 FC=0.5 NF=1 NR=1 NE=1.315 NC=2 MJE=0.4602 MJC=0.4312 TF=405.1p TR=565p ITF=0.18 VTF=3 XTF=2.5 EG=1.11)

* VCEO: 80
* ICRATING: 200m
* MFG: NSC
