* UCBU208
* bjt/npn/ucbu208.mod

.MODEL uCBU208 NPN (IS=10.3282F BF=13.1001 NF=868.322M VAF=100 IKF=2.06725 ISE=69.4153F NE=1.08535 BR=100.641M IKR=999.881M ISC=2.02044P RE=80.6943M RC=1.78647 CJE=2P MJE=500M CJC=572.558P VJC=700M MJC=558.066M TF=31.5018N XTF=499.999M VTF=10 ITF=10.3511M TR=10N Vceo=1500 Icrating=5 mfg=Siemens)
