* UCBU326A
* bjt/npn/ucbu326a.mod

.MODEL uCBU326A NPN (IS=9.83587F BF=33.9956 NF=926.412M VAF=100 IKF=1.52471 ISE=374.09F NE=1.36684 BR=28.2634M IKR=999.6 ISC=99.9315P RE=57.7275M RC=48.4213M CJE=2P MJE=500M CJC=5P MJC=500M TF=25.1005N XTF=500M VTF=10 ITF=9.18217M TR=332.114U)

* Vceo: 900
* Icrating: 6
* mfg: Texas
