* UCBU208A
* bjt/npn/ucbu208a.mod

.MODEL uCBU208A NPN (IS=10.1528F BF=15.3953 NF=897.779M VAF=100 IKF=4.99915 ISE=2.7109P NE=1.3065 BR=252.11M IKR=1.00007 ISC=5.51464P RE=52.8902M RC=500M CJE=2P MJE=500M CJC=572.558P VJC=700M MJC=558.066M TF=31.6684N XTF=500M VTF=10 ITF=10.3555M TR=429.265U Vceo=1500 Icrating=5 mfg=Philips)
