* UCBU426
* bjt/npn/ucbu426.mod

.MODEL uCBU426 NPN (IS=31.5849F BF=43.0341 NF=888.243M VAF=100 IKF=1.60065 ISE=6.016602E-019 NE=1.18011 BR=51.6234M IKR=999.97 ISC=99.9778P RE=83.5348M RC=24.7066M CJE=2P MJE=500M CJC=5P MJC=500M TF=25.1542N XTF=500M VTF=10 ITF=10.197M TR=218.485U)

* Vceo: 800
* Icrating: 6
* mfg: Texas
