* UCBU406
* bjt/npn/ucbu406.mod

.MODEL uCBU406 NPN (IS=9.9822F BF=55.108 NF=1.02229 VAF=100 IKF=4.2725 ISE=40.1051P NE=1.96698 BR=138.579M IKR=999.958M ISC=14.8407P RE=61.0112M RC=99.1446M CJE=2P MJE=500M CJC=366.438P VJC=700M MJC=558.067M TF=14.9903N XTF=500M VTF=10 ITF=16.299M TR=10N Vceo=375 Icrating=6 mfg=Texas)
