* ZXTAM322
* bjt/npn/zxtam322.mod

.MODEL ZXTAM322 NPN IS=5.92E-13 BF=500 IKF=5 VAF=34.6 ISE=1.27E-13 NE=1.425 NR=1 BR=280 IKR=2 VAR=12.25 ISC=6.138E-13 NC=1.46 RB=0.1 RE=0.025 RC=0.017 CJC=76p MJC=0.2981 VJC=0.4414 CJE=230p MJE=0.3569 VJE=0.7042 TF=1.12n TR=2.15n
