* ZXTN2007G
* bjt/npn/zxtn2007g.mod

.MODEL ZXTN2007G NPN IS=1.5p NF=1 BF=210 IKF=8 VAF=100 ISE=7.5E-13 NE=1.39 NR=1 BR=120 IKR=5 VAR=25 ISC=0.9p NC=1.37 RC=5m TRC1=3m RB=0.3 TRB1=6m RE=24m TRE1=3m CJC=110p MJC=0.44 VJC=0.65 CJE=650p TF=0.8n TR=9n XTB=1.4

* Vceo: 30
* Icrating: 7
* mfg: Zetex
