* ZXTN19100CFF
* bjt/npn/zxtn19100cff.mod

.MODEL ZXTN19100CFF NPN IS=5.7E-13 NF=1 BF=390 IKF=6 VAF=183 ISE=1E-13 NE=1.42 NR=1 BR=43 IKR=.1 VAR=32 ISC=5.5E-13 NC=1.25 RB=.15 RE=.01 RC=.01 CJC=52p MJC=0.378 VJC=0.45 CJE=373p MJE=0.38 VJE=0.77 TF=8.5E-10 TR=5.1E-8 XTB=1.4 TRC1=.004 TRB1=.004 TRE1=.004 QUASIMOD=1 RCO=2.1 GAMMA=1.9E-8 VCEO=100 ICRATING=4.5 MFG=ZETEX
