* ZXTN07045EFF
* bjt/npn/zxtn07045eff.mod

.MODEL ZXTN07045EFF NPN IS=1.5p NF=1 BF=1160 IKF=4 VAF=60 ISE=4E-13 NE=1.37 NR=1 BR=123 IKR=1 VAR=14.5 ISC=4E-13 NC=1.34 RB=0.1 RE=0.022 RC=0.015 CJE=250p VJE=0.68 MJE=0.36 CJC=59p VJC=0.49 MJC=0.36 TF=0.6n TR=9n RCO=0.75 GAMMA=5n QUASIMOD=1 XTB=1.4 TRE1=0.004 TRB1=0.004 TRC1=0.004 Vceo=45 Icrating=4 mfg=Zetex
