* ZXTN25012EFL
* bjt/npn/zxtn25012efl.mod

.MODEL ZXTN25012EFL NPN IS=9E-13 NF=1 BF=990 IKF=3.8 VAF=25 ISE=8E-14 NE=1.35 NR=1 BR=410 IKR=1.25 VAR=8 ISC=8e-14 NC=1.35 RB=0.1 RE=0.0117 RC=0.0081 CJC=61p MJC=0.31 VJC=0.52 CJE=168p MJE=0.38 VJE=0.70 TF=0.5n TR=1.7n XTB=1.4 Vceo=12 Icrating=2 mfg=Zetex
