* ZXTN25012EFH
* bjt/npn/zxtn25012efh.mod

.MODEL ZXTN25012EFH NPN IS=9E-13 BF=990 NF=1 VAF=25 IKF=3.8 ISE=8E-14 NE=1.35 BR=410 NR=1 VAR=8 IKR=1.25 ISC=8e-14 NC=1.35 RE=0.0117 RB=0.1 RC=0.0081 CJE=168p VJE=0.7 MJE=0.38 CJC=61p VJC=0.52 MJC=0.31 TF=0.5n TR=1.7n XTB=1.4

* Vceo: 12
* Icrating: 6
* mfg: Zetex
