* ZXTN07012EFF
* bjt/npn/zxtn07012eff.mod

.MODEL ZXTN07012EFF NPN IS=1.7p NF=1 BF=1100 IKF=5 VAF=25 ISE=3E-13 NE=1.43 NR=1 BR=470 IKR=1 VAR=6.5 ISC=1.2p NC=1.5 RB=0.1 RE=0.03 RC=0.0097 RCO=0.2 GAMMA=10E-10 CJC=106p MJC=0.33 VJC=0.55 CJE=285p MJE=0.41 VJE=0.80 TF=0.4n TR=1.3n XTB=1.4 TRC1=0.003 TRB1=0.003 TRE1=0.003 QUASIMOD=1 Vceo=12 Icrating=4.5 mfg=Zetex
