* 2SJ201C
* mosfet/vdmos/2sj201c.mod

.model 2SJ201C VDMOS(pchan Vto=-1.5 Kp=4.5 Lambda=0.002 Rs=0.04 Rd=0.1 Rds=1e7 Cgdmax=3100p Cgdmin=55p a=0.34 Cgs=1500p Cjo=2800p m=0.68 VJ=2.5 IS=4.0E-06 N=2.4)
