* 2SJ49C
* mosfet/vdmos/2sj49c.mod

.model 2SJ49C VDMOS(pchan Vto=-0.08 Kp=0.6 Lambda=0.1 Rs=0.55 Rd=0.1 Rds=1e7 Cgdmax=215p Cgdmin=10p a=0.25 Cgs=900p Cjo=1200p m=0.7 VJ=2.5 IS=4.0E-06 N=2.4)
