* 2SK1530C
* mosfet/vdmos/2sk1530c.mod

.model 2SK1530C VDMOS(nchan Vto=1.55 Kp=9.0 Lambda=0.002 Rs=0.025 Rd=0.1 Rds=1e7 Cgdmax=1500p Cgdmin=15p a=0.33 Cgs=880p Cjo=1260p m=0.68 VJ=2.5 IS=4.0E-06 N=2.4)
