* AP9465GEM
* mosfet/vdmos/ap9465gem.mod

.model AP9465GEM VDMOS(Rg=2 Vto=1.8 Rd=0 Rs=16m Rb=10m Kp=30 lambda=0.04 Cgs=600p Cgdmin=50p Cgdmax=800p Cjo=1.2n Is=3p mfg=Advanced_Power_Electronics Vds=40 Ron=25m Qg=8.5n)
