* BS107KL
* mosfet/vdmos/bs107kl.mod

.model BS107KL VDMOS(Rds=200Meg Rg=3 Vto=1.8 Rd=2.1 Rs=0.1 Kp=3.5 Lambda=10m CGDMAX=128p CGDMIN=5p CGS=203p TT=720n a=3.83 m=0.39 Vj=0.16 Cjo=50pF IS=7E-14 RB=0.35 bv=240 ibv=1u Vds=240 Ron=4 Qg=8n)

* mfg: Vishay
