* BSC060N10NS3
* mosfet/vdmos/bsc060n10ns3.mod

.model BSC060N10NS3 VDMOS(Rg=1.6 Vto=3.63 Rd=3.91m Rs=404u Rb=1.1m Kp=155.8 Lambda=0.03 Cgdmin=18p Cgdmax=0.96n A=0.2 Cgs=3.67n Cjo=2.9n M=0.3 Is=172.1p VJ=0.9 N=1.19 TT=60n mfg=Infineon Vds=100 Ron=6m Qg=51n)
