* BSC020N03MS
* mosfet/vdmos/bsc020n03ms.mod

.model BSC020N03MS VDMOS(Rg=1.9 Vto=2.52 Rd=1m Rs=336u Rb=676u Kp=654.7 Lambda=0.07 Cgdmin=122p Cgdmax=1.71n A=0.6 Cgs=7.04n Cjo=5.15n M=0.3 Is=42.8p VJ=0.9 N=1.11 TT=3n Vds=30 Ron=2.5m Qg=45n)

* mfg: Infineon
