* BSC050NE2LS
* mosfet/vdmos/bsc050ne2ls.mod

.model BSC050NE2LS VDMOS(Rg=0.65 Vto=2.33 Rd=2.36m Rs=276u Rb=2.46m Kp=157.5 Lambda=0.09 Cgdmin=13p Cgdmax=0.24n A=0.6 Cgs=0.72n Cjo=0.97n M=0.75 Is=8.2p VJ=2.5 N=1.12 TT=3n mfg=Infineon Vds=25 Ron=5m Qg=5n)
