* BSC090N03MS
* mosfet/vdmos/bsc090n03ms.mod

.model BSC090N03MS VDMOS(Rg=1 Vto=2.52 Rd=4.84m Rs=454u Rb=2.19m Kp=129.5 Lambda=0.07 Cgdmin=24p Cgdmax=0.34n A=0.6 Cgs=1.39n Cjo=1.26n M=0.3 Is=8.5p VJ=0.9 N=1.11 TT=3n Vds=30 Ron=11.2m Qg=9n)

* mfg: Infineon
