* BSC520N15NS3
* mosfet/vdmos/bsc520n15ns3.mod

.model BSC520N15NS3 VDMOS(Rg=2.1 Vto=4.4 Rd=32.58m Rs=603u Rb=3.91m Kp=18.3 Lambda=0.02 Cgdmin=2p Cgdmax=0.1n A=0.5 Cgs=0.66n Cjo=1n M=0.4 Is=25.2p VJ=0.9 N=1.185 TT=100n mfg=Infineon Vds=150 Ron=52m Qg=9n)
