* BSC600N25NS3
* mosfet/vdmos/bsc600n25ns3.mod

.model BSC600N25NS3 VDMOS(Rg=2.4 Vto=3.7 Rd=47.17m Rs=404u Rb=3.79m Kp=48.7 Lambda=0.015 Cgdmin=6p Cgdmax=0.27n A=0.5 Cgs=1.77n Cjo=2.66n M=0.48 Is=16.8p VJ=0.9 N=1.12 TT=150n mfg=Infineon Vds=250 Ron=60m Qg=21n)
