* BSC900N20NS3
* mosfet/vdmos/bsc900n20ns3.mod

.model BSC900N20NS3 VDMOS(Rg=2.4 Vto=3.7 Rd=66.03m Rs=561u Rb=10.05m Kp=17.4 Lambda=0.015 Cgdmin=2p Cgdmax=0.09n A=0.5 Cgs=0.63n Cjo=0.95n M=0.45 Is=6p VJ=0.9 N=1.12 TT=120n Vds=200 Ron=90m Qg=8n)

* mfg: Infineon
