* BSZ16DN25NS3
* mosfet/vdmos/bsz16dn25ns3.mod

.model BSZ16DN25NS3 VDMOS(Rg=2.4 Vto=3.7 Rd=132.01m Rs=361u Rb=9.85m Kp=17.4 Lambda=0.015 Cgdmin=2p Cgdmax=0.09n A=0.5 Cgs=0.63n Cjo=0.95n M=0.48 Is=6p VJ=0.9 N=1.12 TT=150n mfg=Infineon Vds=250 Ron=165m Qg=8n)
