* CSD25401Q3
* mosfet/vdmos/csd25401q3.mod

.MODEL CSD25401Q3 VDMOS(KP=50 RS=0.001 RD=0.001 RG=0.5 VTO=-0.85 LAMBDA=0.001 CGDMAX=492p CGDMIN=127p CGS=1020p TT=25n a=0.13 IS=1.00E-13 N=1 RB=0.002 m=0.212 Vj=0.1 Cjo=100p PCHAN)
