* FDN359AN_
* mosfet/vdmos/fdn359an_.mod

.MODEL FDN359AN_ VDMOS(KP=8. RS=2m RD=16m RG=0.1 VTO=1.8 LAMBDA=1m IS=1.4e-13 RB=40m CGDMAX=259p CGDMIN=30p CGS=462p a=1.31 TT=100n m=0.307 Vj=0.26 Cjo=230pF Vds=30 Ron=60m Qg=7n)

* mfg: Fairchild
