* FDR6580
* mosfet/vdmos/fdr6580.mod

.model FDR6580 VDMOS(Rg=3 Vto=1 Rd=3.6m Rs=2.7m Rb=5m Kp=120 Cgdmax=2.8n Cgdmin=.6n Cgs=2.7n Cjo=.68n Is=68p mfg=Fairchild Vds=20 Ron=9m Qg=34n)
