* FDS3570
* mosfet/vdmos/fds3570.mod

.model FDS3570 VDMOS(Rg=3 Rd=8.8m Rs=6.6m Vto=2 Kp=66 Cgdmax=2.2n Cgdmin=.27n Cgs=3.6n Cjo=1.08n Is=108p Rb=11m Vds=80 Ron=22m Qg=54n)

* mfg: Fairchild
