* FDS3812
* mosfet/vdmos/fds3812.mod

.model FDS3812 VDMOS(Rg=3 Vto=2.4 Rd=32m Rs=24m Rb=40m Kp=15 Cgdmax=.4n Cgdmin=.1n Cgs=.6n Cjo=.2n Is=26p mfg=Fairchild Vds=80 Ron=80m Qg=13n)
