* FDS4559_N
* mosfet/vdmos/fds4559_n.mod

.model FDS4559_N VDMOS(Rg=3 Vto=2.2 Rd=22m Rs=5.5m Rb=28m Kp=10 lambda=.01 Cgdmax=.4n Cgdmin=.1n Cgs=.64n Cjo=.2n Is=25p Vds=60 Ron=55m Qg=12.5n)

* mfg: Fairchild
