* FDS4072N3
* mosfet/vdmos/fds4072n3.mod

.model FDS4072N3 VDMOS(Rg=3 Vto=1.3 Rd=4m Rs=3m Rb=5m Kp=90 Cgdmax=1.3n Cgdmin=.3n Cgs=5.2n Cjo=.66n Is=66p Vds=40 Ron=10m Qg=33n)

* mfg: Fairchild
