* FDS4465
* mosfet/vdmos/fds4465.mod

.model FDS4465 VDMOS(pchan Rg=3 Vto=-.7 Rd=4m Rs=1m Rb=5m Kp=100 lambda=.01 Cgdmax=7n Cgdmin=1.3n Cgs=6.8n Cjo=2n Is=200p Vds=-20 Ron=10m Qg=86n)

* mfg: Fairchild
