* FDS4885C_N
* mosfet/vdmos/fds4885c_n.mod

.model FDS4885C_N VDMOS(Rg=3 Vto=5 Rd=8.8m Rs=2.2m Rb=11m Kp=14 lambda=.03 Cgdmax=.5n Cgdmin=.12n Cgs=.8n Cjo=.24n Is=30p Vds=40 Ron=22m Qg=15n)

* mfg: Fairchild
