* FDS6875
* mosfet/vdmos/fds6875.mod

.model FDS6875 VDMOS(pchan Rg=3 Rd=12m Rs=9m Vto=-1 Kp=50 Cgdmax=.9n Cgdmin=.12n Cgs=1.5n Cjo=.46n Is=46p Rb=15m mfg=Fairchild Vds=-20 Ron=30m Qg=23n)
