* FDS6912A
* mosfet/vdmos/fds6912a.mod

.model FDS6912A VDMOS(Rg=3 Rd=14m Rs=10.5m Vto=2 Kp=40 Cgdmax=.4n Cgdmin=.05n Cgs=.6n Cjo=.18n Is=18p Rb=17.5m mfg=Fairchild Vds=30 Ron=35m Qg=9n)
