* FDS6930A
* mosfet/vdmos/fds6930a.mod

.model FDS6930A VDMOS(Rg=3 Rd=5m Rs=5m Vto=1.5 Kp=7 Cgdmax=.2n Cgdmin=.03n Cgs=.3n Cjo=.1n Is=10p Rb=27.5m Vds=30 Ron=55m Qg=5n)

* mfg: Fairchild
