* FDS6685
* mosfet/vdmos/fds6685.mod

.model FDS6685 VDMOS(pchan Rg=3 Rd=14m Rs=10.5m Vto=-1 Kp=40 Cgdmax=.8n Cgdmin=.1n Cgs=1.3n Cjo=.38n Is=38p Rb=17.5m Vds=-30 Ron=35m Qg=19n)

* mfg: Fairchild
