* FDS6375
* mosfet/vdmos/fds6375.mod

.model FDS6375 VDMOS(pchan Rg=3 Rd=8m Rs=6m Vto=-1.05 Kp=52 Cgdmax=1.5n Cgdmin=.4n cgs=1.9n Cjo=1n Is=.48nA Rb=19.4m N=1.13 Vds=-20 Ron=19m Qg=23n)

* mfg: Fairchild
