* FDS6675
* mosfet/vdmos/fds6675.mod

.model FDS6675 VDMOS(pchan Rg=3 Rd=8m Rs=6m Vto=-1 Kp=70 Cgdmax=1.2n Cgdmin=.15n Cgs=2n Cjo=.6n Is=60p Rb=10m mfg=Fairchild Vds=-30 Ron=20m Qg=30n)
