* FDS6670A
* mosfet/vdmos/fds6670a.mod

.model FDS6670A VDMOS(Rg=3 Rd=4m Rs=3m Vto=2 Kp=90 Cgdmax=1.4n Cgdmin=.18n Cgs=2.3n Cjo=.7n Is=70p Rb=5m mfg=Fairchild Vds=30 Ron=10m Qg=35n)
