* FDS9934_P
* mosfet/vdmos/fds9934_p.mod

.model FDS9934_P VDMOS(pchan Rg=3 Vto=-1.4 Rd=30m Rs=22.5m Rb=38m Kp=40 Cgdmax=.7n Cgdmin=.2n Cgs=.8n Cjo=.3n Is=18p Vds=-20 Ron=75m Qg=9n)

* mfg: Fairchild
