* FDW2503NZ
* mosfet/vdmos/fdw2503nz.mod

.model FDW2503NZ VDMOS(Rg=3 Vto=1 Rd=8m Rs=2m Rb=10m Kp=30 lambda=.02 Cgdmax=.7n Cgdmin=.16n Cgs=1n Cjo=.3n Is=35p Vds=20 Ron=20m Qg=12n)

* mfg: Fairchild
