* FDZ5047N
* mosfet/vdmos/fdz5047n.mod

.model FDZ5047N VDMOS(Rg=3 Vto=1.5 Rd=1.8m Rs=1.4m Rb=2m Kp=100 Cgdmax=5n Cgdmin=.5n Cgs=3.5n Cjo=1.04n Is=104p mfg=Fairchild Vds=30 Ron=4.5m Qg=52n)
