* HAT1023R
* mosfet/vdmos/hat1023r.mod

.model HAT1023R VDMOS(pchan Rg=3 Vto=-1.4 Rd=12m Rs=9m Rb=15m Kp=50 Cgdmax=1.2n Cgdmin=.3n Cgs=2n Cjo=.6n Is=60p Vds=-20 Ron=30m Qg=30n)

* mfg: Renesas
