* HAT2244WP
* mosfet/vdmos/hat2244wp.mod

.model HAT2244WP VDMOS(Rg=3 Vto=2.1 Rd=4m Rs=1m Rb=5m Kp=70 lambda=.05 Cgdmax=2.4n Cgdmin=.2n Cgs=3n Cjo=1.2n Is=120p Vds=80 Ron=10m Qg=60n)

* mfg: Renesas
