* HAT2165H
* mosfet/vdmos/hat2165h.mod

.model HAT2165H VDMOS(Rg=3 Vto=1.8 Rd=1m Rs=.3m Rb=1m Kp=100 lambda=.07 Cgdmax=2n Cgdmin=.5n Cgs=5.5n Cjo=2n Is=150p mfg=Renesas Vds=30 Ron=2.5m Qg=33n)
