* HUFA76645
* mosfet/vdmos/hufa76645.mod

.model HUFA76645 VDMOS(Rg=3 Rd=9.4m Rs=.8m Vto=2 subthres=.01 mtriode=1 Kp=128 Cgdmax=8n Cgdmin=10p A=.6 Cgs=3n cjo=3.5n M=.55 VJ=.9 Is=3.6p Rb=2.24m Vds=100 Ron=15m Qg=34n)

* mfg: Fairchild
