* HUFA76413DK8T
* mosfet/vdmos/hufa76413dk8t.mod

.model HUFA76413DK8T VDMOS(Rg=3 Vto=2.2 Rd=22.4m Rs=16.8m Rb=28m Kp=50 Cgdmax=.6n Cgdmin=.1n Cgs=.6n Cjo=.2n Is=36p Vds=60 Ron=56m Qg=18n)

* mfg: Fairchild
