* IPB017N06N3
* mosfet/vdmos/ipb017n06n3.mod

.model IPB017N06N3 VDMOS(Rg=1.3 Vto=4.35 Rd=680u Rs=327u Rb=577u Kp=549.4 Lambda=0.01 Cgdmin=39p Cgdmax=4.32n A=2.5 Cgs=16.68n Cjo=10.92n M=0.3 Is=33.4p VJ=0.9 N=1.06 TT=30n Vds=60 Ron=1.7m Qg=206n)

* mfg: Infineon
