* IPB081N06L3
* mosfet/vdmos/ipb081n06l3.mod

.model IPB081N06L3 VDMOS(Rg=0.9 Vto=2.5 Rd=3.88m Rs=1.72m Rb=2.6m Kp=127.1 Lambda=0.01 Cgdmin=10p Cgdmax=1.19n A=2.5 Cgs=3.64n Cjo=2.16n M=0.3 Is=5.8p VJ=0.9 N=1.06 TT=30n Vds=60 Ron=8.1m Qg=22n)

* mfg: Infineon
