* IPB025N10N3
* mosfet/vdmos/ipb025n10n3.mod

.model IPB025N10N3 VDMOS(Rg=1.9 Vto=3.63 Rd=1.3m Rs=393u Rb=623u Kp=469.2 Lambda=0.03 Cgdmin=55p Cgdmax=2.89n A=0.2 Cgs=11.05n Cjo=8.73n M=0.3 Is=518.3p VJ=0.9 N=1.19 TT=60n Vds=100 Ron=2.5m Qg=155n)

* mfg: Infineon
