* IPB072N15N3
* mosfet/vdmos/ipb072n15n3.mod

.model IPB072N15N3 VDMOS(Rg=2.3 Vto=4.4 Rd=4.01m Rs=878u Rb=1.28m Kp=150 Lambda=0.02 Cgdmin=19p Cgdmax=0.82n A=0.5 Cgs=5.46n Cjo=8.18n M=0.4 Is=207.3p VJ=0.9 N=1.185 TT=100n mfg=Infineon Vds=150 Ron=7.2m Qg=70n)
