* IPB023N06N3
* mosfet/vdmos/ipb023n06n3.mod

.model IPB023N06N3 VDMOS(Rg=1.4 Vto=4.35 Rd=940u Rs=465u Rb=815u Kp=395.4 Lambda=0.01 Cgdmin=28p Cgdmax=3.11n A=2.5 Cgs=12n Cjo=8n M=0.3 Is=24p VJ=0.9 N=1.06 TT=30n mfg=Infineon Vds=60 Ron=2.3m Qg=148n)
