* IPB019N06L3
* mosfet/vdmos/ipb019n06l3.mod

.model IPB019N06L3 VDMOS(Rg=1.3 Vto=2.5 Rd=710u Rs=717u Rb=867u Kp=735.8 Lambda=0.01 Cgdmin=59p Cgdmax=6.87n A=2.5 Cgs=20.85n Cjo=10.92n M=0.3 Is=33.4p VJ=0.9 N=1.06 TT=30n mfg=Infineon Vds=60 Ron=1.9m Qg=125n)
