* IPD600N25N3
* mosfet/vdmos/ipd600n25n3.mod

.model IPD600N25N3 VDMOS(Rg=2.4 Vto=3.7 Rd=47.17m Rs=829u Rb=4.22m Kp=48.7 Lambda=0.015 Cgdmin=6p Cgdmax=0.27n A=0.5 Cgs=1.77n Cjo=2.66n M=0.48 Is=16.8p VJ=0.9 N=1.12 TT=150n Vds=250 Ron=60m Qg=21n)

* mfg: Infineon
