* IPP260N06N3
* mosfet/vdmos/ipp260n06n3.mod

.model IPP260N06N3 VDMOS(Rg=0.9 Vto=4.35 Rd=12.5m Rs=2.9m Rb=7.57m Kp=30 Lambda=0.01 Cgdmin=2p Cgdmax=0.24n A=2.5 Cgs=0.91n Cjo=0.79n M=0.3 Is=1.8p VJ=0.9 N=1.06 TT=30n mfg=Infineon Vds=60 Ron=26m Qg=11n)
