* IRF2804
* mosfet/vdmos/irf2804.mod

.model IRF2804 VDMOS(Rg=2.8 Vto=4 Rd=0.015m Rs=0.0m Rb=1.8m Kp=94 Cgdmax=6.9n Cgdmin=0.8n Cgs=6.1n Cjo=2.9n Is=10p tt=56n_Rectifier Vds=40 Ron=1.8m Qg=160n)

* mfg: International
