* IRF3717
* mosfet/vdmos/irf3717.mod

.model IRF3717 VDMOS(Rg=3 Vto=2.45 Rd=1.8m Rs=1.3m Rb=2m Kp=100 Cgdmax=1.3n Cgdmin=.33n Cgs=2.2n Cjo=.66n Is=44p_Rectifier Vds=20 Ron=4.4m Qg=22n)

* mfg: International
