* IRF510
* mosfet/vdmos/irf510.mod

.model IRF510 VDMOS(Rg=3 Vto=3.8 Rd=200m Rs=54m Rb=250m lambda=.01 Kp=1.3 Cgdmax=.3n Cgdmin=.08n Cgs=.1n Cjo=.17n Is=17p_Rectifier Vds=100 Ron=540m Qg=8.3n)

* mfg: International
