* IRF6201
* mosfet/vdmos/irf6201.mod

.model IRF6201 VDMOS(Rg=1.5 Vto=1.05 Rd=0.85m Rs=0.1m Rb=1.75m Kp=300 Cgdmax=18n Cgdmin=2n Cgs=6.6n Cjo=1.5n Is=100p mfg=International_Rectifier Vds=20 Ron=1.9m Qg=130n)
