* IRF7455
* mosfet/vdmos/irf7455.mod

.model IRF7455 VDMOS(Rg=3 Rd=3m Rs=2.3m Vto=2 Kp=95 Cgdmax=1.5n Cgdmin=.19n Cgs=2.5n Cjo=.74n Is=74p Rb=3.8m mfg=International_Rectifier Vds=30 Ron=7.5m Qg=37n)
