* IRF7205
* mosfet/vdmos/irf7205.mod

.model IRF7205 VDMOS(pchan Rg=3 Rd=28m Rs=21m Vto=-1 Kp=10 Cgdmax=1.1n Cgdmin=.14n Cgs=1.8n Cjo=.54n Is=54p Rb=35m_Rectifier Vds=-30 Ron=70m Qg=27n)

* mfg: International
