* IRF7490
* mosfet/vdmos/irf7490.mod

.MODEL IRF7490 VDMOS(KP=29.82 RS=0.4m RD=33.2m RG=0.5 VTO=3.84 LAMBDA=10m CGDMAX=3.1n CGDMIN=10p CGS=1.7n TT=96n a=1.91 IS=4.32E-10 N=1.187 RB=0.18827 m=0.495 Vj=1.3 Cjo=1n mfg=International_Rectifier Vds=100 Ron=39m Qg=37n)
