* IRF7809A
* mosfet/vdmos/irf7809a.mod

.model IRF7809A VDMOS(Rg=3 Rd=3.4m Rs=2.6m Vto=2 Kp=93 Cgdmax=2.4n Cgdmin=.31n Cgs=4.1n Cjo=1.22n Is=122p Rb=4.3m mfg=International_Rectifier Vds=30 Ron=8.5m Qg=61n)
