* IRF7210
* mosfet/vdmos/irf7210.mod

.model IRF7210 VDMOS(pchan Rg=3 Rd=2m Rs=1.5m Vto=-1 Kp=100 Cgdmax=8.5n Cgdmin=1.06n Cgs=14.1n Cjo=4.24n Is=424p Rb=2.5m mfg=International_Rectifier Vds=-12 Ron=5m Qg=212n)
