* IRFH5255
* mosfet/vdmos/irfh5255.mod

.model IRFH5255 VDMOS(Rg=0.6 Vto=2.35 Rd=0.63m Rs=0.0m Rb=3.8m Kp=30 Cgdmax=0.48n Cgdmin=140p Cgs=0.65n Cjo=1.68n Is=60p_Rectifier Vds=25 Ron=5.0m Qg=14.5n)

* mfg: International
