* IRFH5020
* mosfet/vdmos/irfh5020.mod

.model IRFH5020 VDMOS(Rg=1.9 Vto=4.4 Rd=33m Rs=0m Rb=2.2m Kp=13 Cgdmax=1.45n Cgdmin=0.025n Cgs=1.8n Cjo=1.3n Is=59p tt=46n_Rectifier Vds=200 Ron=47m Qg=36n)

* mfg: International
