* IRFH5300
* mosfet/vdmos/irfh5300.mod

.model IRFH5300 VDMOS(Rg=1.3 Vto=2.35 Rd=0.52m Rs=0.0m Rb=2.18m Kp=225 Cgdmax=5.0n Cgdmin=0.001n Cgs=6.0n Cjo=2.5n Is=400p_Rectifier Vds=30 Ron=1.1m Qg=120n)

* mfg: International
