* IRFH5250
* mosfet/vdmos/irfh5250.mod

.model IRFH5250 VDMOS(Rg=1.3 Vto=2.35 Rd=0.38m Rs=0.0m Rb=2m Kp=250 Cgdmax=4.1n Cgdmin=0.85n Cgs=5.1n Cjo=2.5n Is=400p_Rectifier Vds=25 Ron=0.9m Qg=110n)

* mfg: International
