* IRFH5207
* mosfet/vdmos/irfh5207.mod

.model IRFH5207 VDMOS(Rg=1.7 Vto=3.8 Rd=3.65m Rs=0.0m Rb=1.5m Kp=37 Cgdmax=1.95n Cgdmin=55p Cgs=1.55n Cjo=1.2n Is=13p_Rectifier Vds=75 Ron=8.0m Qg=39n)

* mfg: International
