* IRFH5406
* mosfet/vdmos/irfh5406.mod

.model IRFH5406 VDMOS(Rg=1.1 Vto=3.65 Rd=1.4m Rs=0.0m Rb=3.2m Kp=16 Cgdmax=1.25n Cgdmin=60p Cgs=0.75n Cjo=0.55n Is=100p_Rectifier Vds=60 Ron=11.4m Qg=23n)

* mfg: International
