* IRFH6200
* mosfet/vdmos/irfh6200.mod

.model IRFH6200 VDMOS(Rg=1.3 Vto=1 Rd=0.25m Rs=0.1m Rb=1m Kp=600 Cgdmax=13n Cgdmin=3.50n Cgs=11n Cjo=2n Is=650p mfg=International_Rectifier Vds=20 Ron=0.8m Qg=155n)
