* IRFH5306
* mosfet/vdmos/irfh5306.mod

.model IRFH5306 VDMOS(Rg=1.4 Vto=2.35 Rd=2.05m Rs=0.0m Rb=3.5m Kp=27 Cgdmax=0.58n Cgdmin=160p Cgs=0.5n Cjo=3.5n Is=300p mfg=International_Rectifier Vds=30 Ron=6.9m Qg=7.8n)
