* IRFH5104
* mosfet/vdmos/irfh5104.mod

.model IRFH5104 VDMOS(Rg=1.4 Vto=3.8 Rd=0.01m Rs=0.10m Rb=1.2m Kp=50 Cgdmax=3.4n Cgdmin=0.25n Cgs=1.5n Cjo=1.5n Is=13p mfg=International_Rectifier Vds=40 Ron=2.9m Qg=53n)
