* IRFL014
* mosfet/vdmos/irfl014.mod

.model IRFL014 VDMOS(Rg=3 Vto=3.5 Rd=80m Rs=20m Rb=100m Kp=2 lambda=.01 Cgdmax=.5n Cgdmin=.07n Cgs=.25n Cjo=.1n Is=22p_Rectifier Vds=60 Ron=200m Qg=11n)

* mfg: International
