* IRFS4010
* mosfet/vdmos/irfs4010.mod

.model IRFS4010 VDMOS(Rg=2 Vto=3.9 Rd=2.05m Rs=0.0m Rb=1.6m Kp=89 Cgdmax=6.52n Cgdmin=.45n Cgs=4.51n Cjo=3.7n Is=200p tt=72n_Rectifier Vds=100 Ron=3.9m Qg=143n)

* mfg: International
