* IRFZ46NS
* mosfet/vdmos/irfz46ns.mod

.model IRFZ46NS VDMOS(Rg=2.0 Vto=4 Rd=0.5m Rs=0.0m Rb=9.0m Kp=14 Cgdmax=3n Cgdmin=0.01n Cgs=1.20n Cjo=0.9n Is=350n tt=67n mfg=International_Rectifier Vds=55 Ron=12.8m Qg=72n)
