* IRL630
* mosfet/vdmos/irl630.mod

.model IRL630 VDMOS VTO=2.033 RS=0.03325 KP=21.514 RD=0.2711 RG=13.626 I CGDMAX=4.5n CGDMIN=5p CBD=2.43E-10 IS=6.09p Rb=0.0198 TT=4.563e-07 Cgs=978p_Rectifier

* mfg: International
