* IRLHM620
* mosfet/vdmos/irlhm620.mod

.model IRLHM620 VDMOS(Rg=2.6 Vto=1 Rd=0.15m Rs=0.1m Rb=2.5m Kp=160 Cgdmax=4n Cgdmin=2.5n Cgs=1.75n Cjo=0.8n Is=700p_Rectifier Vds=20 Ron=2m Qg=52n)

* mfg: International
