* IRLMS2002PBF
* mosfet/vdmos/irlms2002pbf.mod

.model IRLMS2002PbF VDmos( VTO=1.2 Rd=13m Rs=2m rds=1Meg rg=3.74 KP=40.0888 IS=1.25034e-07 Rb=0.0157167 N=1.5 tt=1e-7 CJO=250p VJ=2.212 M=0.363085 CGDMAX=188p CGDMIN=1p CGS=1420p a=0.07_Rectifier Vds=20 Ron=30m Qg=15n)

* mfg: International
