* IRLML6246
* mosfet/vdmos/irlml6246.mod

.model IRLML6246 VDMOS(Rg=4 Vto=0.95 Rd=7m Rs=0.0m Rb=16m Kp=12 Cgdmax=0.6n Cgdmin=40p Cgs=0.07n Cjo=70p Is=2p mfg=International_Rectifier Vds=20 Ron=30m Qg=3.5n)
