* IXFX90N30
* mosfet/vdmos/ixfx90n30.mod

.model IXFX90N30 VDMOS(Rg=3 Vto=3.6 Rd=13.2m Rs=9.9m Rb=17m Kp=90 Cgdmax=30n Cgdmin=10n Cgs=100n Cjo=30n Is=720p mfg=IXYS Vds=300 Ron=33m Qg=360n)
