* IXTH20N50D
* mosfet/vdmos/ixth20n50d.mod

.MODEL IXTH20N50D VDMOS KP=1.9 RS=1m RD=.222 VTO=-1.5 RDS=20E6 Lambda=4m subthres=8m CJO=4.9n M=1.5 a=1 CGDMAX=900p CGDMIN=80p CGS=6200p a=1 VJ=2.6 RG=10m IS=1.37u N=2
