* IXTP6N100D2
* mosfet/vdmos/ixtp6n100d2.mod

.MODEL IXTP6N100D2 VDMOS(KP=2.9 RS=0.1 RD=1.3 RG=1 VTO=-2.7 LAMBDA=0.03 CGDMAX=3000p CGDMIN=2p CGS=2915p TT=1371n a=1 IS=2.13E-08 N=1.564 RB=0.0038 m=0.548 Vj=0.1 Cjo=3200pF subthres=2.5m)
