* KP301B
* mosfet/vdmos/kp301b.mod

.MODEL KP301B VDMOS(pchan KP=200u Mtriode=2.5 RS=200 RD=100 RG=60 VTO=-4 LAMBDA=0.03 CGDMAX=1.5p CGDMIN=1p CGS=1.5p TT=720n is=10n n=1 Rb=10 m=0.5 Vj=1 Cjo=10p Vds=-20 Ron=1000)

* mfg: USSR
