* KP305
* mosfet/vdmos/kp305.mod

.model KP305 VDMOS(KP=3.8m RS=20 RD=20 RG=10 VTO=-1.2 LAMBDA=0.01 CGDMAX=1p CGDMIN=0.38p CGS=4p TT=720n is=10n n=1 Rb=10 m=0.5 Vj=1 Cjo=10p mfg=USSR Vds=15)
