* KP505A
* mosfet/vdmos/kp505a.mod

.MODEL KP505A VDMOS(KP=3 RS=0.05 RD=0.004 RG=100 Rds=300Meg VTO=1.7 LAMBDA=0.05 CGDMAX=202p CGDMIN=5p CGS=285p TT=720n a=0.25 is=10p n=1.2 Rb=0.21 m=0.368 Vj=1.77 Cjo=185pF Vds=50 Ron=0.3)

* mfg: USSR
