* KP501A
* mosfet/vdmos/kp501a.mod

.model KP501A VDMOS(KP=3.8m RS=1 RD=7 RG=70 Rds=300Meg VTO=2 LAMBDA=1.5m CGDMAX=110p CGDMIN=20p CGS=110p TT=720n IS=1p BV=240 Rb=1 CJO=125p M=0.7 VJ=0.36 Cjo=10p Vds=240 Ron=10)

* mfg: USSR
