* KP723A
* mosfet/vdmos/kp723a.mod

.MODEL KP723A VDMOS(KP=9.82 RS=0.0003 RD=0.0112 RG=40 VTO=3.81 LAMBDA=0.001 CGDMAX=2016p CGDMIN=46p CGS=1100p TT=14u a=0.28 IS=6.55E-08 N=2.007 RB=0.028186 m=0.482 Vj=3.17 Cjo=2000pF mfg=INTEGRAL Vds=60 Ron=0.028)
