* KP723G
* mosfet/vdmos/kp723g.mod

.MODEL KP723G VDMOS(KP=26.0059 RS=0.0003 RD=0.023 RG=40 VTO=1.82 LAMBDA=0.001 CGDMAX=2096p CGDMIN=50p CGS=3000p TT=14u a=0.31 IS=6.55E-08 N=2.007 RB=0.028186 m=0.331 Vj=0.89 Cjo=2800pF mfg=INTEGRAL Vds=60 Ron=0.028)
