* NDC7002N
* mosfet/vdmos/ndc7002n.mod

.model NDC7002N VDMOS(Rg=3 Vto=2.2 Rd=.8 Rs=.2 Rb=1 Kp=.4 lambda=.01 Cgdmax=.05n Cgdmin=.02n Cgs=.02n Cjo=.02n Is=2p Vds=50 Ron=2000m Qg=1n)

* mfg: Fairchild
