* NDS351AN_
* mosfet/vdmos/nds351an_.mod

.MODEL NDS351AN_ VDMOS(KP=4 RS=0.0012 RD=8m RG=1.6 VTO=2.3 LAMBDA=0.001 IS=1.4e-13 RB=40m CGDMAX=73p CGDMIN=13p CGS=135p TT=16n a=1.15 m=0.374 Vj=0.69 Cjo=70pF mfg=Fairchild Vds=30 Ron=250m Qg=1.8n)
