* NTLMS4502N
* mosfet/vdmos/ntlms4502n.mod

.model NTLMS4502N VDMOS(Rg=3 Vto=1.5 Rd=3.2m Rs=2.4m Rb=4m Kp=94 Cgdmax=.1n Cgdmin=.03n Cgs=.2n Cjo=.06n Is=6p mfg=Onsemi Vds=24 Ron=8m Qg=3n)
