* NTLMS4504N
* mosfet/vdmos/ntlms4504n.mod

.model NTLMS4504N VDMOS(Rg=3 Vto=1.5 Rd=1.5m Rs=1.1m Rb=2m Kp=102.6 Cgdmax=1n Cgdmin=.24n Cgs=1.6n Cjo=.48n Is=48p mfg=Onsemi Vds=24 Ron=3.7m Qg=24n)
