* NTMD4N03R2
* mosfet/vdmos/ntmd4n03r2.mod

.model NTMD4N03R2 VDMOS(Rg=7 Vto=2.3 Rd=25m Rs=6m Rb=10m Kp=12 Cgdmax=.65n Cgdmin=.06n Cgs=.13n Cjo=.13n Is=32p Vds=30 Ron=48m Qg=8n)

* mfg: Onsemi
