* RJK0305DPBX
* mosfet/vdmos/rjk0305dpbx.mod

.model RJK0305DPBx VDMOS(Rg=.6 Vto=1.95 Rd=0m Rs=0m Rb=1.3m Kp=23 Lambda=.07 Cgdmax=.96n Cgdmin=.05n Cgs=1250p Cjo=530p Is=48p mfg=Renesas Vds=30 Ron=6.7m Qg=8n mtriode=.65 L=.75)
