* RJK0330DPB
* mosfet/vdmos/rjk0330dpb.mod

.model RJK0330DPB VDMOS(Rg=.4 Vto=2.29 Rd=0m Rs=0m Rb=1.3m Kp=70 Lambda=.11 Cgdmax=.96n Cgdmin=.05n Cgs=4300p Cjo=800p Is=48p Vds=30 Ron=2.1m Qg=27n mtriode=.5 )

* mfg: Renesas
