* RSQ035P03
* mosfet/vdmos/rsq035p03.mod

.model RSQ035P03 VDMOS(pchan Rg=3 Vto=-1.65 Rd=26m Rs=6.5m Rb=13m Kp=10.2 Lambda=.01 Cgdmax=.3n Cgdmin=.12n Cgs=.76n Cjo=.76n Is=15p mfg=Rohm Vds=-30 Ron=65m Qg=9.2n)
