* SI1013
* mosfet/vdmos/si1013.mod

.model Si1013 VDMOS(pchan Rg=3 Vto=-1.3 Rd=480m Rs=360m Rb=600m Kp=3 Cgdmax=.2n Cgdmin=.01n Cgs=.05n Cjo=.1n Is=3p Vds=-20 Ron=1200m Qg=1.5n)

* mfg: Siliconix
