* SI3445DV
* mosfet/vdmos/si3445dv.mod

.model SI3445DV VDMOS(pchan Rg=3 Rd=15m Rs=6m Vto=-.85 Kp=18 Cgdmax=1n Cgdmin=.44n cgs=1.2n Cjo=.1n Is=.045nA Rb=.026 N=1.127 Vds=-8 Ron=34m Qg=15n)

* mfg: Siliconix
