* SI4336DY
* mosfet/vdmos/si4336dy.mod

.model Si4336DY VDMOS(Rg=3 Vto=2.7 Rd=1.2m Rs=.3m Rb=2m Kp=110 lambda=.01 Cgdmax=2n Cgdmin=.5n Cgs=4n Cjo=1.5n Is=72p mfg=Siliconix Vds=30 Ron=3m Qg=36n)
