* SI4467DY
* mosfet/vdmos/si4467dy.mod

.model SI4467DY VDMOS(pchan Rg=3 Vto=-.7 Rd=4m Rs=3m Rb=5m Kp=90 Cgdmax=3.4n Cgdmin=1.5n Cgs=10n Cjo=3.72n Is=172p Vds=-20 Ron=10m Qg=86n)

* mfg: Fairchild
