* SI4416DY
* mosfet/vdmos/si4416dy.mod

.model Si4416DY VDMOS(Rg=3 Rd=11.2m Rs=8.4m Vto=2 Kp=54 Cgdmax=.5n Cgdmin=.07n Cgs=.9n Cjo=.26n Is=26p Rb=14m Vds=30 Ron=28m Qg=13n)

* mfg: Siliconix
