* SI4408DY
* mosfet/vdmos/si4408dy.mod

.model Si4408DY VDMOS(Rg=3 Vto=2.1 Rd=1.8m Rs=1.4m Rb=2m Kp=50 Cgdmax=1.2n Cgdmin=.5n Cgs=2.5n Cjo=.6n Is=42p Vds=20 Ron=4.5m Qg=21n)

* mfg: Siliconix
