* SI4433DY
* mosfet/vdmos/si4433dy.mod

.model Si4433DY VDMOS(pchan Rg=3 Vto=-1.2 Rd=44m Rs=33m Rb=55m Kp=30 Cgdmax=.2n Cgdmin=.07n Cgs=.6n Cjo=.2n Is=9p mfg=Siliconix Vds=-20 Ron=110m Qg=4.4n)
