* SI4480DY
* mosfet/vdmos/si4480dy.mod

.model Si4480DY VDMOS(Rg=3 Rd=16m Rs=12m Vto=2 Kp=30 Cgdmax=1.2n Cgdmin=.15n Cgs=2n Cjo=.6n Is=60p Rb=20m Vds=80 Ron=40m Qg=30n)

* mfg: Siliconix
