* SI4466DY
* mosfet/vdmos/si4466dy.mod

.model Si4466DY VDMOS(Rg=3 Rd=3.6m Rs=2.7m Vto=2 Kp=92 Cgdmax=2n Cgdmin=.25n Cgs=3.3n Cjo=1n Is=100p Rb=4.5m Vds=20 Ron=9m Qg=50n)

* mfg: Siliconix
