* SI4427DY
* mosfet/vdmos/si4427dy.mod

.model Si4427DY VDMOS(pchan Rg=3 Rd=4.8m Rs=3.6m Vto=-1 Kp=86 Cgdmax=1.9n Cgdmin=.24n Cgs=3.1n Cjo=.94n Is=94p Rb=6m Vds=-30 Ron=12m Qg=47n)

* mfg: Siliconix
