* SI4410DY
* mosfet/vdmos/si4410dy.mod

.model Si4410DY VDMOS(Rg=3 Rd=3m Rs=3m Vto=2.6 Kp=60 Cgdmax=1.9n Cgdmin=50p Cgs=3.1n Cjo=1n Is=5.5p Rb=5.7m Vds=30 Ron=15m Qg=60n)

* mfg: Siliconix
