* SI4542DY_N
* mosfet/vdmos/si4542dy_n.mod

.model Si4542DY_N VDMOS(Rg=3 Vto=2.6 Rd=10m Rs=2.5m Rb=13m Kp=25 lambda=.02 Cgdmax=1n Cgdmin=.1n Cgs=2n Cjo=.6n Is=60p mfg=Siliconix Vds=30 Ron=25m Qg=30n)
