* SI4630DY
* mosfet/vdmos/si4630dy.mod

.model Si4630DY VDMOS(Rg=1.5 Vto=1.9 Rd=1m Rs=.3m Rb=.5m Kp=80 Lambda=.05 Cgdmax=6.1n Cgdmin=.2n Cgs=5n Cjo=5n Is=305p Vds=25 Ron=2.7m Qg=108n)

* mfg: Siliconix
