* SI4825DY
* mosfet/vdmos/si4825dy.mod

.model Si4825DY VDMOS(pchan Rg=3 Rd=8.8m Rs=6.6m Vto=-1 Kp=66 Cgdmax=2.2n Cgdmin=.28n Cgs=3.7n Cjo=1.1n Is=110p Rb=11m Vds=-30 Ron=22m Qg=55n)

* mfg: Siliconix
