* SI4864DY
* mosfet/vdmos/si4864dy.mod

.model Si4864DY VDMOS(Rg=3 Rd=1.4m Rs=1.1m Vto=2 Kp=103 Cgdmax=1.9n Cgdmin=.24n Cgs=3.1n Cjo=.94n Is=94p Rb=1.8m mfg=Siliconix Vds=20 Ron=3.5m Qg=47n)
