* SI4820DY
* mosfet/vdmos/si4820dy.mod

.model Si4820DY VDMOS(Rg=3 Rd=8m Rs=6m Vto=2 Kp=70 Cgdmax=.8n Cgdmin=.1n Cgs=1.3n Cjo=.4n Is=40p Rb=10m mfg=Siliconix Vds=30 Ron=20m Qg=20n)
