* SI4888DY
* mosfet/vdmos/si4888dy.mod

.model Si4888DY VDMOS(Rg=3 Rd=4m Rs=3m Vto=2 Kp=90 Cgdmax=.7n Cgdmin=.08n Cgs=1.1n Cjo=.33n Is=32.6p Rb=5m Vds=30 Ron=10m Qg=16.3n)

* mfg: Siliconix
