* SI4874DY
* mosfet/vdmos/si4874dy.mod

.model Si4874DY VDMOS(Rg=3 Rd=4m Rs=3m Vto=2 Kp=90 Cgdmax=1.4n Cgdmin=.18n Cgs=2.3n Cjo=.7n Is=70p Rb=5m Vds=30 Ron=10m Qg=35n)

* mfg: Siliconix
