* SI4940DY
* mosfet/vdmos/si4940dy.mod

.model Si4940DY VDMOS(Rg=3 Rd=20m Rs=15m Vto=2.7 Kp=15 Lambda=.02 Cgdmax=.4n Cgdmin=.05n Cgs=.6n Cjo=.18n Is=18p Rb=25m Vds=40 Ron=50m Qg=9n)

* mfg: Siliconix
