* SI4982DY
* mosfet/vdmos/si4982dy.mod

.model Si4982DY VDMOS(Rg=3 Rd=72m Rs=54m Vto=2 Kp=7 Cgdmax=.6n Cgdmin=.08n Cgs=1n Cjo=.3n Is=30p Rb=90m Vds=100 Ron=180m Qg=15n)

* mfg: Siliconix
