* SI5515_P
* mosfet/vdmos/si5515_p.mod

.model Si5515_P VDMOS(pchan Rg=3 Vto=-1 Rd=34.4m Rs=8.6m Rb=43m Kp=8 lambda=.01 Cgdmax=.3n Cgdmin=.06n Cgs=.6n Cjo=.15n Is=11p Vds=-20 Ron=86m Qg=5.5n)

* mfg: Siliconix
