* SI7866DP
* mosfet/vdmos/si7866dp.mod

.model Si7866DP VDMOS(Rg=3 Rd=1.6m Rs=1.2m Vto=1.2 Kp=50 Cgdmax=1.6n Cgdmin=.2n Cgs=2.7n Cjo=.8n Is=80p Rb=2m Vds=20 Ron=4m Qg=40n)

* mfg: Siliconix
