* SI7868DP
* mosfet/vdmos/si7868dp.mod

.model Si7868DP VDMOS(Rg=3 Rd=1.2m Rs=.9m Vto=1.2 Kp=50 Cgdmax=2n Cgdmin=.25n Cgs=3.3n Cjo=1n Is=100p Rb=1.5m mfg=Siliconix Vds=20 Ron=3m Qg=50n)
