* SI7998DP_1
* mosfet/vdmos/si7998dp_1.mod

.model Si7998DP_1 VDMOS(Rg=2 Vto=2.5 Rd=5m Rs=1m Rb=3.6m Kp=100 lambda=0.07 Cgs=1.1n Cgdmin=100p Cgdmax=400p Cjo=1n Is=1p Vds=30 Ron=9m Qg=17n)

* mfg: Vishay
