* SI7942DP
* mosfet/vdmos/si7942dp.mod

.model Si7942DP VDMOS(Rg=3 Vto=3.4 Rd=20m Rs=5m Rb=25m Kp=10 lambda=.01 Cgdmax=.6n Cgdmin=.2n Cgs=.8n Cjo=.32n Is=32p Vds=100 Ron=49m Qg=16n)

* mfg: Siliconix
