* SI802DP
* mosfet/vdmos/si802dp.mod

.model Si802DP VDMOS(Rg=2 Rd=3.7m Rs=0 Vto=1.2 Kp=100 lambda=.06 Cgdmax=1n Cgdmin=200p Cgs=2n Cjo=1n Is=50p Rb=2.5m mtriode=2.8 Vds=20 Ron=5.7m Qg=15.5n)

* mfg: Siliconix
