* SI9434DY
* mosfet/vdmos/si9434dy.mod

.model Si9434DY VDMOS(pchan Rg=3 Rd=16m Rs=12m Vto=-1 Kp=30 Cgdmax=1.2n Cgdmin=.15n Cgs=2n Cjo=.6n Is=60p Rb=20m Vds=-20 Ron=40m Qg=30n)

* mfg: Siliconix
