* SI9400DY
* mosfet/vdmos/si9400dy.mod

.model Si9400DY VDMOS(pchan Rg=3 Rd=160m Rs=120m Vto=-1 Kp=5 Cgdmax=.2n Cgdmin=.03n Cgs=.4n Cjo=.11n Is=10.8p Rb=200m Vds=-20 Ron=400m Qg=5.4n)

* mfg: Siliconix
