* SI9803DY
* mosfet/vdmos/si9803dy.mod

.model Si9803DY VDMOS(pchan Rg=3 Rd=16m Rs=3m Vto=-1.4 Kp=22 Cgdmax=1.4n Cgdmin=.3n cgs=1.1n Cjo=1n Is=.023nA Rb=9.6m N=1.09 mfg=Siliconix Vds=-25 Ron=33m Qg=15.8n)
