* SQ7002K
* mosfet/vdmos/sq7002k.mod

.MODEL SQ7002K VDMOS(KP=0.46 RS=0.8751 RG=150 VTO=1.8 rds=50Meg LAMBDA=60m CGDMAX=20p CGDMIN=2p CGS=17p TT=500n a=0.47 IS=3.25n N=1.744 RB=0.118608 m=0.348 Vj=0.23 Cjo=14pF mtriode=1 Vds=60 Ron=1 Qg=0.9n mfg=VISHAY)
