* STP14NF12
* mosfet/vdmos/stp14nf12.mod

.model STP14NF12 vdmos (Rg=5 Rd=90m Rs=70m Vto=3.5 Kp=3 Cgdmax=200p Cgdmin=20p Cgs=420p Cjo=60p Is=10p Rb=140m)
