* STP8NM60
* mosfet/vdmos/stp8nm60.mod

.model STP8NM60 VDMOS(Rg=4 Vto=5.3 Rd=650m Rs=50m Rb=450m lambda=.005 Kp=1 Cgdmax=.1n Cgdmin=.01n Cgs=.7n Cjo=.3n Is=13p Vds=650 Ron=900m Qg=13n)

* mfg: STMicroelectronics
