* SUD40N04-10A
* mosfet/vdmos/sud40n04-10a.mod

.model SUD40N04-10A VDMOS(Rg=3 Vto=2.9 Rd=4m Rs=3m Rb=5m Kp=90 Cgdmax=1.4n Cgdmin=.2n Cgs=1.8n Cjo=.7n Is=70p Vds=40 Ron=10m Qg=35n)

* mfg: Siliconix
