* SUM110P04-05
* mosfet/vdmos/sum110p04-05.mod

.MODEL SUM110P04-05 VDMOS(KP=80 RS=0.002 RD=0.001 RG=3.0 VTO=-3.3 LAMBDA=0.05 CGDMAX=7n CGDMIN=800p CGS=9n TT=100n a=0.55 IS=1.5E-08 N=1.35 RB=0.001 m=0.774 Vj=1.59 Cjo=3nF PCHAN)
