* SUM75N06-09L
* mosfet/vdmos/sum75n06-09l.mod

.model SUM75N06-09L VDMOS(Rg=3 Vto=3 Rd=4m Rs=3m Rb=5m Kp=90 Cgdmax=1.7n Cgdmin=.42n Cgs=2.8n Cjo=.84n Is=84p Vds=60 Ron=10m Qg=42n)

* mfg: Siliconix
