* XP161A1355PR
* mosfet/vdmos/xp161a1355pr.mod

.MODEL XP161A1355PR VDMOS(KP=21.5031 RS=0.0101 RD=0.0051 RG=1 VTO=0.85 LAMBDA=0.001 CGDMAX=1202p CGDMIN=40p CGS=280p TT=720n a=1.11 IS=20f N=1 RB=15m m=0.424 Vj=0.65 Cjo=450pF mfg=Torex Vds=60 Ron=100m Qg=5n)
