* SMCJ33A
* diode/tvs/smcj33a.mod

.model SMCJ33A D(Ron=.4 Roff=8Meg Vfwd=.7 epsilon=100m Vrev=38.65 revepsilon=4)

* Vpk: 33
* mfg: Littlefuse
* type: TVS
