* AA112
* diode/germanium/aa112.mod

.model AA112 D is=1.2u n=1.4 rs=80 cjo=1.2p tt=18n eg=0.69

* type: germanium
