* AEG_AA117
* diode/germanium/aeg_aa117.mod

.MODEL AEG_AA117 D(IS=1.111111E-05 RS=46.02731 BV=115 IBV=0.006 CJO=1p TT=1p ISR=1.581139E-06 M=0.5 VJ=0.5 N=3.542911 IKF=0.03 NR=29.56001 EG=0.67 FC=0.5 XTI=3.012615 NBV=14.78 IBVL=0.00007 NBVL=22.17001 type=germanium
