* AEG_AA112
* diode/germanium/aeg_aa112.mod

.MODEL AEG_AA112 D(IS=2.777779u RS=35.67365 BV=20 IBV=0.0022 CJO=1p TT=1p M=0.5 VJ=1 N=2.172326 EG=0.67 FC=0.5 type=germanium)
