* D18
* diode/germanium/d18.mod

.model D18 d(IS=4u N=2.15 RS=17 m=0.124 Vj=0.1 Cjo=0.67pF IBV=2u BV=20 TT=5n EG=0.67 XTI=3)

* Iave: 16m
* Vpk: 20
* mfg: USSR
* type: germanium
