* D310
* diode/germanium/d310.mod

.model D310 d(IS=2.5u N=1.437 RS=0.07 m=0.314 Vj=1.65 Cjo=14pF IBV=5u BV=20 TT=130n EG=0.67 XTI=3 Iave=500m Vpk=20 mfg=USSR type=germanium)
