* D311A
* diode/germanium/d311a.mod

.model D311A d(IS=8u N=1.483 RS=1.85 m=0.22 Vj=0.1 Cjo=3.5pF IBV=1.00E-04 BV=30 TT=20n EG=0.67 XTI=3 Iave=80m Vpk=30 mfg=USSR type=germanium)
