* OA90-G
* diode/germanium/oa90-g.mod

.model OA90-G D(Is=54.12u N=4.209 Rs=42.72 Ikf=0 Xti=3 Eg=1.11 Cjo=1p M=.3333 Vj=.75 Fc=.5 Isr=13.54E-21 Nr=4.62 Bv=22.5 Ibv=100u Tt=5n type=germanium)
