* OA90-M
* diode/germanium/oa90-m.mod

.model OA90-M D(Is=120.5u N=7.405 Rs=48.89 Ikf=0 Xti=3 Eg=1.11 Cjo=1p M=.3333 Vj=.75 Fc=.5 Isr=10.36E-21 Nr=4.99 Bv=40 Ibv=100u Tt=5n type=germanium)
