* OA95
* diode/germanium/oa95.mod

.model OA95 D is=68.06u N=4.056 Rs=45.41 Ikf=78.67 Xti=3 Cjo=1.326p M=.3333 Vj=.75 Fc=.5 Isr=10.42E-21 Nr=4.612 Bv=100 Ibv=100u Tt=5n

* type: germanium
