* 1N4467
* diode/zener/1n4467.mod

.model 1n4467 D(Is=84.5f N=1 Rs=.1 Ikf=0 Xti=3 Eg=1.11 Cjo=930p M=.3333 Vj=.75 Fc=.5 Isr=83.39n Nr=2 Bv=12.05 Ibv=.1785 Tt=144.3n type=zener)
