* 1N5355B
* diode/zener/1n5355b.mod

.MODEL 1N5355B D(IS=9.15E-16 RS=2.1 TT=5.01E-8 CJO=2.79E-10 M=0.33 BV=17.87 IBV=0.065 )

* Vpk: 18V
* mfg: DiodesInc
* type: zener
