* 1N749
* diode/zener/1n749.mod

.model 1N749 D(Is=880.5E-18 Rs=.25 Ikf=0 N=1 Xti=3 Eg=1.11 Cjo=190p M=.6124 Vj=.75 Fc=.5 Isr=1.743n Nr=2 Bv=4.3 Ibv=16.748m Nbv=1.7936 Ibvl=5.0382m Nbvl=12.554 Tbv1=-232.56u Vpk=4.3 mfg=Motorola type=zener)
