* 1N748
* diode/zener/1n748.mod

.model 1N748 D(Is=1.252f Rs=1.156 Ikf=0 N=1 Xti=3 Eg=1.11 Cjo=205p M=.6004 Vj=.75 Fc=.5 Isr=1.867n Nr=2 Bv=3.9 Ibv=17.244m Nbv=2.4016 Ibvl=8.619m Nbvl=13.283 Tbv1=-384.62u Vpk=3.9 mfg=Motorola type=zener)
