* 1N757
* diode/zener/1n757.mod

.model 1N757 D(Is=2.453f Rs=2.9 Ikf=0 N=1 Xti=3 Eg=1.11 Cjo=78p M=.4399 Vj=.75 Fc=.5 Isr=1.762n Nr=2 Bv=9.1 Ibv=.48516 Nbv=.7022 Ibvl=1m Nbvl=.13785 Tbv1=604.396u)

* Vpk: 9.1
* mfg: Motorola
* type: zener
