* 1N752
* diode/zener/1n752.mod

.model 1N752 D(Is=1.154f Rs=.9471 Ikf=0 N=1 Xti=3 Eg=1.11 Cjo=150p M=.5788 Vj=.75 Fc=.5 Isr=1.625n Nr=2 Bv=5.6 Ibv=62.583m Nbv=.62382 Ibvl=631.96u Nbvl=50 Tbv1=267.86u Vpk=5.6 mfg=Motorola type=zener)
