* 1N755
* diode/zener/1n755.mod

.model 1N755 D(Is=2.077f Rs=2.467 Ikf=0 N=1 Xti=3 Eg=1.11 Cjo=104p M=.5061 Vj=.75 Fc=.5 Isr=1.645n Nr=2 Bv=7.5 Ibv=2.5701 Nbv=.39227 Ibvl=4.0222e-5 Nbvl=.25042 Tbv1=533.33u Vpk=7.5 mfg=Motorola type=zener)
