* BZX384B68
* diode/zener/bzx384b68.mod

.model BZX384B68 D(Is=1.13E-14 N=1.103 BV=68 IBV=0.002 Rs=0.4798 Cjo=1.321E-11 Vj=0.7877 M=0.4021 Fc=0.5)

* Iave: 250M
* Vpk: 68
* Mfg: NXP
* Type: ZENER
