* BZX384B30
* diode/zener/bzx384b30.mod

.model BZX384B30 D(Is=1.13E-14 N=1.103 BV=30 IBV=0.002 Rs=0.4798 Cjo=2.17E-011 Vj=0.6718 M=0.3465 Fc=0.5 Iave=250M Vpk=30 Mfg=NXP Type=ZENER)
