* BZX384B12
* diode/zener/bzx384b12.mod

.model BZX384B12 D(Is=1.13E-14 N=1.103 BV=12 IBV=0.005 Rs=0.4798 Cjo=4.928E-11 Vj=0.575 M=0.3292 Fc=0.5)

* Iave: 250M
* Vpk: 12
* Mfg: NXP
* Type: ZENER
