* BZX384B43
* diode/zener/bzx384b43.mod

.model BZX384B43 D(Is=1.13E-14 N=1.103 BV=43 IBV=0.002 Rs=0.4798 Cjo=1.638E-11 Vj=0.7517 M=0.3762 Fc=0.5)

* Iave: 250M
* Vpk: 43
* Mfg: NXP
* Type: ZENER
