* BZX384B36
* diode/zener/bzx384b36.mod

.model BZX384B36 D(Is=1.13E-14 N=1.103 BV=36 IBV=0.002 Rs=0.4798 Cjo=1.866E-11 Vj=0.7591 M=0.3771 Fc=0.5)

* Iave: 250M
* Vpk: 36
* Mfg: NXP
* Type: ZENER
