* BZX384B18
* diode/zener/bzx384b18.mod

.model BZX384B18 D(Is=1.13E-14 N=1.103 BV=18 IBV=0.005 Rs=0.4798 Cjo=3.17E-11 Vj=0.6421 M=0.3327 Fc=0.5)

* Iave: 250M
* Vpk: 18
* Mfg: NXP
* Type: ZENER
