* BZX384B16
* diode/zener/bzx384b16.mod

.model BZX384B16 D(Is=1.13E-14 N=1.103 BV=16 IBV=0.005 Rs=0.4798 Cjo=3.509E-11 Vj=0.6502 M=0.3378 Fc=0.5)

* Iave: 250M
* Vpk: 16
* Mfg: NXP
* Type: ZENER
