* BZX384B27
* diode/zener/bzx384b27.mod

.model BZX384B27 D(Is=1.13E-14 N=1.103 BV=27 IBV=0.002 Rs=0.4798 Cjo=2.233E-11 Vj=0.7107 M=0.3546 Fc=0.5)

* Iave: 250M
* Vpk: 27
* Mfg: NXP
* Type: ZENER
