* BZX384B3V3
* diode/zener/bzx384b3v3.mod

.model BZX384B3V3 D(Is=1.033E-15 N=1.001 BV=3.3 IBV=0.005 Rs=0.387 Cjo=3.162E-10 Vj=0.6687 M=0.3164 Fc=0.5 Iave=250M Vpk=3.3 Mfg=NXP Type=ZENER)
