* BZX384B56
* diode/zener/bzx384b56.mod

.model BZX384B56 D(Is=1.13E-14 N=1.103 BV=56 IBV=0.002 Rs=0.4798 Cjo=1.508E-11 Vj=0.8856 M=0.4177 Fc=0.5 Iave=250M Vpk=56 Mfg=NXP Type=ZENER)
