* BZX384B3V0
* diode/zener/bzx384b3v0.mod

.model BZX384B3V0 D(Is=1.033E-15 N=1.001 BV=3 IBV=0.005 Rs=0.387 Cjo=3.346E-10 Vj=0.6722 M=0.3162 Fc=0.5)

* Iave: 250M
* Vpk: 3
* Mfg: NXP
* Type: ZENER
