* BZX384B20
* diode/zener/bzx384b20.mod

.model BZX384B20 D(Is=1.13E-14 N=1.103 BV=20 IBV=0.005 Rs=0.4798 Cjo=2.915E-11 Vj=0.635 M=0.3362 Fc=0.5)

* Iave: 250M
* Vpk: 20
* Mfg: NXP
* Type: ZENER
