* BZX384B62
* diode/zener/bzx384b62.mod

.model BZX384B62 D(Is=1.13E-14 N=1.103 BV=62 IBV=0.002 Rs=0.4798 Cjo=1.403E-11 Vj=0.8053 M=0.4033 Fc=0.5 Iave=250M Vpk=62 Mfg=NXP Type=ZENER)
