* BZX384B2V7
* diode/zener/bzx384b2v7.mod

.model BZX384B2V7 D(Is=1.033E-15 N=1.001 BV=2.7 IBV=0.005 Rs=0.387 Cjo=3.518E-10 Vj=0.6816 M=0.3174 Fc=0.5)

* Iave: 250M
* Vpk: 2.7
* Mfg: NXP
* Type: ZENER
