* BZX384B15
* diode/zener/bzx384b15.mod

.model BZX384B15 D(Is=1.13E-14 N=1.103 BV=15 IBV=0.005 Rs=0.4798 Cjo=4.023E-11 Vj=0.6144 M=0.3297 Fc=0.5 Iave=250M Vpk=15 Mfg=NXP Type=ZENER)
