* BZX384B9V1
* diode/zener/bzx384b9v1.mod

.model BZX384B9V1 D(Is=1.13E-14 N=1.103 BV=9.1 IBV=0.005 Rs=0.4798 Cjo=7.316E-11 Vj=0.5667 M=0.3295 Fc=0.5 Iave=250M Vpk=9.1 Mfg=NXP Type=ZENER)
