* BZX384B2V4
* diode/zener/bzx384b2v4.mod

.model BZX384B2V4 D(Is=1.033E-15 N=1.001 BV=2.4 IBV=0.005 Rs=0.387 Cjo=3.615E-10 Vj=0.5762 M=0.2715 Fc=0.5 Iave=250M Vpk=2.4 Mfg=NXP Type=ZENER)
