* BZX384B4V3
* diode/zener/bzx384b4v3.mod

.model BZX384B4V3 D(Is=1.033E-15 N=1.001 BV=4.3 IBV=0.005 Rs=0.387 Cjo=2.715E-10 Vj=0.7721 M=0.3557 Fc=0.5 Iave=250M Vpk=4.3 Mfg=NXP Type=ZENER)
