* BZX384B7V5
* diode/zener/bzx384b7v5.mod

.model BZX384B7V5 D(Is=1.13E-14 N=1.103 BV=7.5 IBV=0.005 Rs=0.4798 Cjo=8.767E-11 Vj=0.5829 M=0.3299 Fc=0.5 Iave=250M Vpk=7.5 Mfg=NXP Type=ZENER)
