* BZX384B51
* diode/zener/bzx384b51.mod

.model BZX384B51 D(Is=1.13E-14 N=1.103 BV=51 IBV=0.002 Rs=0.4798 Cjo=1.602E-11 Vj=0.8454 M=0.4154 Fc=0.5 Iave=250M Vpk=51 Mfg=NXP Type=ZENER)
