* BZX384B6V8
* diode/zener/bzx384b6v8.mod

.model BZX384B6V8 D(Is=1.033E-15 N=1.001 BV=6.8 IBV=0.005 Rs=0.387 Cjo=1.519E-10 Vj=0.9041 M=0.4027 Fc=0.5)

* Iave: 250M
* Vpk: 6.8
* Mfg: NXP
* Type: ZENER
