* BZX384B13
* diode/zener/bzx384b13.mod

.model BZX384B13 D(Is=1.13E-14 N=1.103 BV=13 IBV=0.005 Rs=0.4798 Cjo=4.377E-11 Vj=0.5656 M=0.3289 Fc=0.5)

* Iave: 250M
* Vpk: 13
* Mfg: NXP
* Type: ZENER
