* BZX384B47
* diode/zener/bzx384b47.mod

.model BZX384B47 D(Is=1.13E-14 N=1.103 BV=47 IBV=0.002 Rs=0.4798 Cjo=1.707E-11 Vj=0.888 M=0.4248 Fc=0.5 Iave=250M Vpk=47 Mfg=NXP Type=ZENER)
