* BZX384B11
* diode/zener/bzx384b11.mod

.model BZX384B11 D(Is=1.13E-14 N=1.103 BV=11 IBV=0.005 Rs=0.4798 Cjo=5.404E-11 Vj=0.5891 M=0.3295 Fc=0.5)

* Iave: 250M
* Vpk: 11
* Mfg: NXP
* Type: ZENER
