* BZX384B6V2
* diode/zener/bzx384b6v2.mod

.model BZX384B6V2 D(Is=1.033E-15 N=1.001 BV=6.2 IBV=0.005 Rs=0.387 Cjo=1.732E-10 Vj=0.9334 M=0.4321 Fc=0.5 Iave=250M Vpk=6.2 Mfg=NXP Type=ZENER)
