* BZX384B75
* diode/zener/bzx384b75.mod

.model BZX384B75 D(Is=1.13E-14 N=1.103 BV=75 IBV=0.002 Rs=0.4798 Cjo=1.246E-11 Vj=0.822 M=0.4052 Fc=0.5)

* Iave: 250M
* Vpk: 75
* Mfg: NXP
* Type: ZENER
