* BZX384B39
* diode/zener/bzx384b39.mod

.model BZX384B39 D(Is=1.13E-14 N=1.103 BV=39 IBV=0.002 Rs=0.4798 Cjo=1.772E-11 Vj=0.7471 M=0.3751 Fc=0.5 Iave=250M Vpk=39 Mfg=NXP Type=ZENER)
