* BZX384B3V6
* diode/zener/bzx384b3v6.mod

.model BZX384B3V6 D(Is=1.033E-15 N=1.001 BV=3.6 IBV=0.005 Rs=0.387 Cjo=3.062E-10 Vj=0.6643 M=0.3168 Fc=0.5)

* Iave: 250M
* Vpk: 3.6
* Mfg: NXP
* Type: ZENER
