* BZX384B8V2
* diode/zener/bzx384b8v2.mod

.model BZX384B8V2 D(Is=1.13E-14 N=1.103 BV=8.2 IBV=0.005 Rs=0.4798 Cjo=7.562E-11 Vj=0.5765 M=0.3298 Fc=0.5 Iave=250M Vpk=8.2 Mfg=NXP Type=ZENER)
