* BZX384B10
* diode/zener/bzx384b10.mod

.model BZX384B10 D(Is=1.13E-14 N=1.103 BV=10 IBV=0.005 Rs=0.4798 Cjo=6.004E-11 Vj=0.6305 M=0.3302 Fc=0.5)

* Iave: 250M
* Vpk: 10
* Mfg: NXP
* Type: ZENER
