* BZX384B22
* diode/zener/bzx384b22.mod

.model BZX384B22 D(Is=1.13E-14 N=1.103 BV=22 IBV=0.005 Rs=0.4798 Cjo=2.701E-11 Vj=0.7087 M=0.3557 Fc=0.5)

* Iave: 250M
* Vpk: 22
* Mfg: NXP
* Type: ZENER
