* BZX384B24
* diode/zener/bzx384b24.mod

.model BZX384B24 D(Is=1.13E-14 N=1.103 BV=24 IBV=0.002 Rs=0.4798 Cjo=2.48E-11 Vj=0.7142 M=0.3513 Fc=0.5)

* Iave: 250M
* Vpk: 24
* Mfg: NXP
* Type: ZENER
