* BZX384B33
* diode/zener/bzx384b33.mod

.model BZX384B33 D(Is=1.13E-14 N=1.103 BV=33 IBV=0.002 Rs=0.4798 Cjo=2.019E-11 Vj=0.7645 M=0.3782 Fc=0.5)

* Iave: 250M
* Vpk: 33
* Mfg: NXP
* Type: ZENER
