* BZX384B5V1
* diode/zener/bzx384b5v1.mod

.model BZX384B5V1 D(Is=1.033E-15 N=1.001 BV=5.1 IBV=0.005 Rs=0.387 Cjo=2.402E-10 Vj=0.7934 M=0.3578 Fc=0.5)

* Iave: 250M
* Vpk: 5.1
* Mfg: NXP
* Type: ZENER
