* BZX79C6V8
* diode/zener/bzx79c6v8.mod

.MODEL BZX79C6V8 D IS=2.471n N=2.088 RS=1m IKF=6.51 CJO=95.65p M=.3487 VJ=.7022 ISR=10.010E-21 BV=6.948 IBV=.8623 TT=140n type=zener
