* BZX84C18V
* diode/zener/bzx84c18v.mod

.MODEL BZX84C18V D(Is=110.88E-18 N=.92657 RS=.85899 IKF=149.75 CJO=24.981E-12 M=.331 VJ=.64091 ISR=36.794E-12 BV=18.118 IBV=.56589 TT=2.7700E-6)

* mfg: Philips
* type: zener
