* BZX84C3V3
* diode/zener/bzx84c3v3.mod

.MODEL BZX84C3V3 D(IS=1.636E-15 N=1.028 RS=.13 IKF=1 XTI=3 EG=1.11 CJO=283.5E-12 M=.2019 VJ=.3905 FC=.5 BV=3.366 IBV=64.77E-3 TBV1=-.46E-3 TT=57.71E-9)

* Vpk: 3.3
* mfg: Philips
* type: zener
