* BZY79C62
* diode/zener/bzy79c62.mod

.model BZY79C62 D(Is=113f N=1.195 Rs=.197 Ikf=24m Xti=3 Eg=1.11 Cjo=35p Bv=62 Ibv=.16 Iave=250m Vpk=62 mfg=NXP type=Zener)
