* DFLZ33
* diode/zener/dflz33.mod

.model DFLZ33 D(Is=12.5p Rs=.6 N=1.1 Cjo=220p VJ=1 M=.33 tt=50n BV=29 IBV=1e-10 NBV=8_Inc.)

* Vpk: 33
* mfg: Diodes
* type: Zener
