* PH_BZX84C3V3
* diode/zener/ph_bzx84c3v3.mod

.MODEL PH_BZX84C3V3 D ( IS=7.035E-16 N=0.9809 BV=3.3 IBV=0.005 RS=0.3487 CJO=3.162E-10 VJ=0.6687 M=0.3164 FC=0.5 )

* mfg: Philips
* type: zener
