* PH_BZX585-B27
* diode/zener/ph_bzx585-b27.mod

.MODEL PH_BZX585-B27 D ( IS=1.13E-14 N=1.103 BV=27 IBV=0.002 RS=0.4798 CJO=2.233E-11 VJ=0.7107 M=0.3546 FC=0.5 mfg=Philips type=zener )
