* PH_BZX384-B6V8
* diode/zener/ph_bzx384-b6v8.mod

.MODEL PH_BZX384-B6V8 D ( IS=1.033E-15 N=1.001 BV=6.8 IBV=0.005 RS=0.387 CJO=1.519E-10 VJ=0.9041 M=0.4027 FC=0.5 )

* mfg: Philips
* type: zener
