* PH_BZX585-B33
* diode/zener/ph_bzx585-b33.mod

.MODEL PH_BZX585-B33 D ( IS=1.13E-14 N=1.103 BV=33 IBV=0.002 RS=0.4798 CJO=2.019E-11 VJ=0.7645 M=0.3782 FC=0.5 mfg=Philips type=zener )
