* PH_BZX585-B3V6
* diode/zener/ph_bzx585-b3v6.mod

.MODEL PH_BZX585-B3V6 D ( IS=1.033E-15 N=1.001 BV=3.6 IBV=0.005 RS=0.387 CJO=3.062E-10 VJ=0.6643 M=0.3168 FC=0.5 mfg=Philips type=zener )
