* PH_BZX384-B10
* diode/zener/ph_bzx384-b10.mod

.MODEL PH_BZX384-B10 D ( IS=1.13E-14 N=1.103 BV=10 IBV=0.005 RS=0.4798 CJO=6.004E-11 VJ=0.6305 M=0.3302 FC=0.5 )

* mfg: Philips
* type: zener
