* PH_BZX884-B56
* diode/zener/ph_bzx884-b56.mod

.MODEL PH_BZX884-B56 D ( IS=5.229E-15 N=1.061 BV=56 IBV=0.002 RS=0.4467 CJO=1.508E-11 VJ=0.8856 M=0.4177 FC=0.5 )

* mfg: Philips
* type: zener
