* PH_BZX585-B13
* diode/zener/ph_bzx585-b13.mod

.MODEL PH_BZX585-B13 D ( IS=1.13E-14 N=1.103 BV=13 IBV=0.005 RS=0.4798 CJO=4.377E-11 VJ=0.5656 M=0.3289 FC=0.5 mfg=Philips type=zener )
