* PH_BZX384-B47
* diode/zener/ph_bzx384-b47.mod

.MODEL PH_BZX384-B47 D ( IS=1.13E-14 N=1.103 BV=47 IBV=0.002 RS=0.4798 CJO=1.707E-11 VJ=0.888 M=0.4248 FC=0.5 )

* mfg: Philips
* type: zener
