* PH_BZX384-B11
* diode/zener/ph_bzx384-b11.mod

.MODEL PH_BZX384-B11 D ( IS=1.13E-14 N=1.103 BV=11 IBV=0.005 RS=0.4798 CJO=5.404E-11 VJ=0.5891 M=0.3295 FC=0.5 )

* mfg: Philips
* type: zener
