* PH_BZX884-B15
* diode/zener/ph_bzx884-b15.mod

.MODEL PH_BZX884-B15 D ( IS=5.229E-15 N=1.061 BV=15 IBV=0.005 RS=0.4467 CJO=4.023E-11 VJ=0.6144 M=0.3297 FC=0.5 )

* mfg: Philips
* type: zener
