* PH_BZX884-B11
* diode/zener/ph_bzx884-b11.mod

.MODEL PH_BZX884-B11 D ( IS=5.229E-15 N=1.061 BV=11 IBV=0.005 RS=0.4467 CJO=5.404E-11 VJ=0.5891 M=0.3295 FC=0.5 )

* mfg: Philips
* type: zener
