* PH_BZX884-B5V6
* diode/zener/ph_bzx884-b5v6.mod

.MODEL PH_BZX884-B5V6 D ( IS=7.066E-16 N=0.9643 BV=5.6 IBV=0.005 RS=0.2544 CJO=1.961E-10 VJ=0.9187 M=0.423 FC=0.5 )

* mfg: Philips
* type: zener
