* PH_BZX384-B2V4
* diode/zener/ph_bzx384-b2v4.mod

.MODEL PH_BZX384-B2V4 D ( IS=1.033E-15 N=1.001 BV=2.4 IBV=0.005 RS=0.387 CJO=3.615E-10 VJ=0.5762 M=0.2715 FC=0.5 )

* mfg: Philips
* type: zener
