* PH_BZX84C4V3
* diode/zener/ph_bzx84c4v3.mod

.MODEL PH_BZX84C4V3 D ( IS=7.035E-16 N=0.9809 BV=4.3 IBV=0.005 RS=0.3487 CJO=2.715E-10 VJ=0.7721 M=0.3557 FC=0.5 )

* mfg: Philips
* type: zener
