* PH_PESD5V2S18U
* diode/zener/ph_pesd5v2s18u.mod

.MODEL PH_PESD5V2S18U D ( IS=2.779E-16 N=0.9976 BV=6.7 IBV=0.001 RS=0.2888 CJO=1.025E-10 VJ=0.7664 M=0.3438 FC=0.5 mfg=Philips type=zener )
