* PH_PESD5VOV4UW
* diode/zener/ph_pesd5vov4uw.mod

.MODEL PH_PESD5VOV4UW D ( IS=3.997E-17 N=1.012 BV=6.8 IBV=0.001 RS=1.445 CJO=1.217E-11 VJ=0.6509 M=0.2841 mfg=Philips type=zener )
