* PH_PESD3V3S2UT
* diode/zener/ph_pesd3v3s2ut.mod

.MODEL PH_PESD3V3S2UT D ( IS=7.035E-16 N=0.9809 BV=5.6 IBV=0.005 RS=0.3487 CJO=1.961E-10 VJ=0.9187 M=0.423 FC=0.5 mfg=Philips type=zener )
