* PH_PESD3V3V4UW
* diode/zener/ph_pesd3v3v4uw.mod

.MODEL PH_PESD3V3V4UW D ( IS=2.497E-17 N=1.003 BV=5.6 IBV=0.001 RS=0.5053 CJO=1.561E-11 VJ=0.6327 M=0.2904 mfg=Philips type=zener )
