* PH_PESD3V3L5UV
* diode/zener/ph_pesd3v3l5uv.mod

.MODEL PH_PESD3V3L5UV D ( IS=3.644E-17 N=0.9717 BV=5.6 IBV=0.001 RS=0.5003 CJO=2.136E-11 VJ=0.7025 M=0.3242 FC=0.5 mfg=Philips type=zener )
