* PH_PESD3V3S2UQ
* diode/zener/ph_pesd3v3s2uq.mod

.MODEL PH_PESD3V3S2UQ D ( IS=3.134E-16 N=0.9403 BV=5.6 IBV=0.005 RS=0.2549 CJO=1.961E-10 VJ=0.9187 M=0.423 FC=0.5 mfg=Philips type=zener )
