* PH_PESD15VS2UT
* diode/zener/ph_pesd15vs2ut.mod

.MODEL PH_PESD15VS2UT D ( IS=9.794E-015 N=1.101 BV=18 IBV=0.005 RS=0.3363 CJO=3.17E-011 VJ=0.6421 M=0.3327 FC=0.5 mfg=Philips type=zener )
