* PH_PESD5V0L1BA
* diode/zener/ph_pesd5v0l1ba.mod

.MODEL PH_PESD5V0L1BA D ( IS=7.035E-16 N=0.9809 BV=6.8 IBV=0.005 RS=0.3487 CJO=1.519E-10 VJ=0.9041 M=0.4027 FC=0.5 mfg=Philips type=zener )
