* PH_PESD12VS2UQ
* diode/zener/ph_pesd12vs2uq.mod

.MODEL PH_PESD12VS2UQ D ( IS=9.72E-15 N=1.088 BV=15.4 IBV=0.005 RS=0.2663 CJO=4.023E-11 VJ=0.6144 M=0.3297 FC=0.5 )

* mfg: Philips
* type: zener
