* PH_PESD24VL2BT
* diode/zener/ph_pesd24vl2bt.mod

.MODEL PH_PESD24VL2BT D ( IS=9.794E-15 N=1.101 BV=27 IBV=0.002 RS=0.3363 CJO=2.233E-11 VJ=0.7107 M=0.3546 FC=0.5 )

* mfg: Philips
* type: zener
