* PH_PESD24VS2UT
* diode/zener/ph_pesd24vs2ut.mod

.MODEL PH_PESD24VS2UT D ( IS=9.794E-015 N=1.101 BV=27 IBV=0.005 RS=0.3363 CJO=2.233E-011 VJ=0.7107 M=0.3546 FC=0.5 mfg=Philips type=zener )
