* PH_PESD5V0L5UV
* diode/zener/ph_pesd5v0l5uv.mod

.MODEL PH_PESD5V0L5UV D ( IS=3.644E-17 N=0.9717 BV=6.8 IBV=0.001 RS=0.5003 CJO=1.641E-11 VJ=0.8979 M=0.33 FC=0.5 )

* mfg: Philips
* type: zener
