* PH_PDZ4.7B
* diode/zener/ph_pdz4.7b.mod

.MODEL PH_PDZ4.7B D ( IS=1.033E-15 N=1.001 BV=4.7 IBV=0.005 RS=0.387 CJO=2.589E-10 VJ=0.8029 M=0.3636 FC=0.5 )

* mfg: Philips
* type: zener
