* PH_PESD12VL2BT
* diode/zener/ph_pesd12vl2bt.mod

.MODEL PH_PESD12VL2BT D ( IS=9.794E-15 N=1.101 BV=15 IBV=0.005 RS=0.3363 CJO=4.023E-11 VJ=0.6144 M=0.3297 FC=0.5 )

* mfg: Philips
* type: zener
