* PH_PESD12VS2UT
* diode/zener/ph_pesd12vs2ut.mod

.MODEL PH_PESD12VS2UT D ( IS=9.794E-015 N=1.101 BV=15 IBV=0.005 RS=0.3363 CJO=4.023E-011 VJ=0.6144 M=0.3297 FC=0.5 )

* mfg: Philips
* type: zener
