* PH_PESD15VS1UB
* diode/zener/ph_pesd15vs1ub.mod

.MODEL PH_PESD15VS1UB D ( IS=1.13E-14 N=1.103 BV=18 IBV=0.005 RS=0.4798 CJO=3.17E-11 VJ=0.6421 M=0.3327 FC=0.5 mfg=Philips type=zener )
