* PH_PESD5V0S2UQ
* diode/zener/ph_pesd5v0s2uq.mod

.MODEL PH_PESD5V0S2UQ D ( IS=3.02E-16 N=0.9388 BV=5.6 IBV=0.005 RS=0.2559 CJO=1.519E-10 VJ=0.9041 M=0.4027 FC=0.5 mfg=Philips type=zener )
