******************************************
*
*1N4148
*
*NXP Semiconductors
*
*High-speed diodes
*

*
*VRRM = 100V
*IFRM = 450 mA 
*trr  = 4ns
*
*Package: SOD 27
*
*Package Pin 1 : Cathode
*Package Pin 2 : Anode
*
*Simulator: PSPICE
*
**************************************
.MODEL 1N4148 D 
+ IS = 4.352E-9 
+ N = 1.906 
+ BV = 110 
+ IBV = 0.0001 
+ RS = 0.6458 
+ CJO = 7.048E-13 
+ VJ = 0.869 
+ M = 0.03 
+ FC = 0.5 
+ TT = 3.48E-9
